{
   "completed_at" : "20240613T180731Z",
   "completed_status" : "Success",
   "created_at" : "20240612T183717Z",
   "current_step" : 1,
   "eplusout_err" : "Program Version,EnergyPlus, Version 23.2.0-7636e6b3e9, YMD=2024.06.13 14:07,\n   ************* Beginning Zone Sizing Calculations\n   ** Warning ** ProcessScheduleInput: Schedule:Day:Interval=\"ECONOMIZER MAX OA FRACTION 70 PCT DEFAULT\", Blank Schedule Type Limits Name input -- will not be validated.\n   ** Warning ** ProcessScheduleInput: Schedule:Day:Interval=\"OFFICEMEDIUM HVACOPERATIONSCHD DEFAULT\", Blank Schedule Type Limits Name input -- will not be validated.\n   ** Warning ** ProcessScheduleInput: Schedule:Day:Interval=\"OFFICEMEDIUM HVACOPERATIONSCHD SMRDSN|WKDY DAY\", Blank Schedule Type Limits Name input -- will not be validated.\n   ** Warning ** ProcessScheduleInput: Schedule:Day:Interval=\"OFFICEMEDIUM HVACOPERATIONSCHD SUMMER DESIGN DAY\", Blank Schedule Type Limits Name input -- will not be validated.\n   ** Warning ** ProcessScheduleInput: Schedule:Day:Interval=\"OFFICEMEDIUM HVACOPERATIONSCHD WINTER DESIGN DAY\", Blank Schedule Type Limits Name input -- will not be validated.\n   ** Warning ** ProcessScheduleInput: Schedule:Day:Interval=\"OFFICEMEDIUM HVACOPERATIONSCHD WNTRDSN|SAT DAY\", Blank Schedule Type Limits Name input -- will not be validated.\n   ** Warning ** ProcessScheduleInput: Schedule:Year=\"OFFICEMEDIUM HVACOPERATIONSCHD\", Blank Schedule Type Limits Name input -- will not be validated.\n   ** Warning ** ProcessScheduleInput: Schedule:Constant=\"ALWAYS OFF DISCRETE\", Blank Schedule Type Limits Name input -- will not be validated.\n   ** Warning ** ProcessScheduleInput: Schedule:Constant=\"ALWAYS ON CONTINUOUS\", Blank Schedule Type Limits Name input -- will not be validated.\n   ** Warning ** CheckUsedConstructions: There are 21 nominally unused constructions in input.\n   **   ~~~   ** For explicit details on each unused construction, use Output:Diagnostics,DisplayExtraWarnings;\n   ** Warning ** GetInternalHeatGains: People=\"OFFICE WHOLEBUILDING - MD OFFICE PEOPLE\" has comfort related schedules but no thermal comfort model selected.\n   **   ~~~   ** If schedules are specified for air velocity, clothing insulation, and/or work efficiency but no thermal comfort\n   **   ~~~   ** thermal comfort model is selected, the schedules will be listed as unused schedules in the .err file.\n   **   ~~~   ** To avoid these errors, select a valid thermal comfort model or eliminate these schedules in the PEOPLE input.\n   ** Warning ** GetInternalHeatGains: People=\"OFFICE WHOLEBUILDING - MD OFFICE PEOPLE\" has comfort related schedules but no thermal comfort model selected.\n   **   ~~~   ** If schedules are specified for air velocity, clothing insulation, and/or work efficiency but no thermal comfort\n   **   ~~~   ** thermal comfort model is selected, the schedules will be listed as unused schedules in the .err file.\n   **   ~~~   ** To avoid these errors, select a valid thermal comfort model or eliminate these schedules in the PEOPLE input.\n   ** Warning ** GetInternalHeatGains: People=\"OFFICE WHOLEBUILDING - MD OFFICE PEOPLE\" has comfort related schedules but no thermal comfort model selected.\n   **   ~~~   ** If schedules are specified for air velocity, clothing insulation, and/or work efficiency but no thermal comfort\n   **   ~~~   ** thermal comfort model is selected, the schedules will be listed as unused schedules in the .err file.\n   **   ~~~   ** To avoid these errors, select a valid thermal comfort model or eliminate these schedules in the PEOPLE input.\n   ** Warning ** GetInternalHeatGains: People=\"OFFICE WHOLEBUILDING - MD OFFICE PEOPLE\" has comfort related schedules but no thermal comfort model selected.\n   **   ~~~   ** If schedules are specified for air velocity, clothing insulation, and/or work efficiency but no thermal comfort\n   **   ~~~   ** thermal comfort model is selected, the schedules will be listed as unused schedules in the .err file.\n   **   ~~~   ** To avoid these errors, select a valid thermal comfort model or eliminate these schedules in the PEOPLE input.\n   ** Warning ** GetInternalHeatGains: People=\"OFFICE WHOLEBUILDING - MD OFFICE PEOPLE\" has comfort related schedules but no thermal comfort model selected.\n   **   ~~~   ** If schedules are specified for air velocity, clothing insulation, and/or work efficiency but no thermal comfort\n   **   ~~~   ** thermal comfort model is selected, the schedules will be listed as unused schedules in the .err file.\n   **   ~~~   ** To avoid these errors, select a valid thermal comfort model or eliminate these schedules in the PEOPLE input.\n   ** Warning ** GetInternalHeatGains: People=\"OFFICE WHOLEBUILDING - MD OFFICE PEOPLE\" has comfort related schedules but no thermal comfort model selected.\n   **   ~~~   ** If schedules are specified for air velocity, clothing insulation, and/or work efficiency but no thermal comfort\n   **   ~~~   ** thermal comfort model is selected, the schedules will be listed as unused schedules in the .err file.\n   **   ~~~   ** To avoid these errors, select a valid thermal comfort model or eliminate these schedules in the PEOPLE input.\n   ** Warning ** GetInternalHeatGains: People=\"OFFICE WHOLEBUILDING - MD OFFICE PEOPLE\" has comfort related schedules but no thermal comfort model selected.\n   **   ~~~   ** If schedules are specified for air velocity, clothing insulation, and/or work efficiency but no thermal comfort\n   **   ~~~   ** thermal comfort model is selected, the schedules will be listed as unused schedules in the .err file.\n   **   ~~~   ** To avoid these errors, select a valid thermal comfort model or eliminate these schedules in the PEOPLE input.\n   ** Warning ** GetInternalHeatGains: People=\"OFFICE WHOLEBUILDING - MD OFFICE PEOPLE\" has comfort related schedules but no thermal comfort model selected.\n   **   ~~~   ** If schedules are specified for air velocity, clothing insulation, and/or work efficiency but no thermal comfort\n   **   ~~~   ** thermal comfort model is selected, the schedules will be listed as unused schedules in the .err file.\n   **   ~~~   ** To avoid these errors, select a valid thermal comfort model or eliminate these schedules in the PEOPLE input.\n   ** Warning ** GetInternalHeatGains: People=\"OFFICE WHOLEBUILDING - MD OFFICE PEOPLE\" has comfort related schedules but no thermal comfort model selected.\n   **   ~~~   ** If schedules are specified for air velocity, clothing insulation, and/or work efficiency but no thermal comfort\n   **   ~~~   ** thermal comfort model is selected, the schedules will be listed as unused schedules in the .err file.\n   **   ~~~   ** To avoid these errors, select a valid thermal comfort model or eliminate these schedules in the PEOPLE input.\n   ** Warning ** GetInternalHeatGains: People=\"OFFICE WHOLEBUILDING - MD OFFICE PEOPLE\" has comfort related schedules but no thermal comfort model selected.\n   **   ~~~   ** If schedules are specified for air velocity, clothing insulation, and/or work efficiency but no thermal comfort\n   **   ~~~   ** thermal comfort model is selected, the schedules will be listed as unused schedules in the .err file.\n   **   ~~~   ** To avoid these errors, select a valid thermal comfort model or eliminate these schedules in the PEOPLE input.\n   ** Warning ** GetInternalHeatGains: People=\"OFFICE WHOLEBUILDING - MD OFFICE PEOPLE\" has comfort related schedules but no thermal comfort model selected.\n   **   ~~~   ** If schedules are specified for air velocity, clothing insulation, and/or work efficiency but no thermal comfort\n   **   ~~~   ** thermal comfort model is selected, the schedules will be listed as unused schedules in the .err file.\n   **   ~~~   ** To avoid these errors, select a valid thermal comfort model or eliminate these schedules in the PEOPLE input.\n   ** Warning ** GetInternalHeatGains: People=\"OFFICE WHOLEBUILDING - MD OFFICE PEOPLE\" has comfort related schedules but no thermal comfort model selected.\n   **   ~~~   ** If schedules are specified for air velocity, clothing insulation, and/or work efficiency but no thermal comfort\n   **   ~~~   ** thermal comfort model is selected, the schedules will be listed as unused schedules in the .err file.\n   **   ~~~   ** To avoid these errors, select a valid thermal comfort model or eliminate these schedules in the PEOPLE input.\n   ** Warning ** GetInternalHeatGains: People=\"OFFICE WHOLEBUILDING - MD OFFICE PEOPLE\" has comfort related schedules but no thermal comfort model selected.\n   **   ~~~   ** If schedules are specified for air velocity, clothing insulation, and/or work efficiency but no thermal comfort\n   **   ~~~   ** thermal comfort model is selected, the schedules will be listed as unused schedules in the .err file.\n   **   ~~~   ** To avoid these errors, select a valid thermal comfort model or eliminate these schedules in the PEOPLE input.\n   ** Warning ** GetInternalHeatGains: People=\"OFFICE WHOLEBUILDING - MD OFFICE PEOPLE\" has comfort related schedules but no thermal comfort model selected.\n   **   ~~~   ** If schedules are specified for air velocity, clothing insulation, and/or work efficiency but no thermal comfort\n   **   ~~~   ** thermal comfort model is selected, the schedules will be listed as unused schedules in the .err file.\n   **   ~~~   ** To avoid these errors, select a valid thermal comfort model or eliminate these schedules in the PEOPLE input.\n   ** Warning ** GetInternalHeatGains: People=\"OFFICE WHOLEBUILDING - MD OFFICE PEOPLE\" has comfort related schedules but no thermal comfort model selected.\n   **   ~~~   ** If schedules are specified for air velocity, clothing insulation, and/or work efficiency but no thermal comfort\n   **   ~~~   ** thermal comfort model is selected, the schedules will be listed as unused schedules in the .err file.\n   **   ~~~   ** To avoid these errors, select a valid thermal comfort model or eliminate these schedules in the PEOPLE input.\n   ** Warning ** Seems like you already tried to get a Handle on this Actuator 1times.\n   **   ~~~   ** Occurred for componentType='SCHEDULE:YEAR', controlType='SCHEDULE VALUE', uniqueKey='OFFICEMEDIUM CLGSETP_SCH_YES_OPTIMUM'.\n   **   ~~~   ** You should take note that there is a risk of overwritting.\n   ** Warning ** Seems like you already tried to get a Handle on this Actuator 1times.\n   **   ~~~   ** Occurred for componentType='SCHEDULE:YEAR', controlType='SCHEDULE VALUE', uniqueKey='OFFICEMEDIUM HTGSETP_SCH_YES_OPTIMUM'.\n   **   ~~~   ** You should take note that there is a risk of overwritting.\n   ** Warning ** GetDaylightingControls: Fraction of zone or space controlled by the Daylighting reference points is < 1.0.\n   **   ~~~   ** ..discovered in Daylighting:Controls=\"PERIMETER_BOT_ZN_1 ZN DAYLIGHTINGCONTROLS\", only 0.523 of the zone or space is controlled.\n   ** Warning ** GetDaylightingControls: Fraction of zone or space controlled by the Daylighting reference points is < 1.0.\n   **   ~~~   ** ..discovered in Daylighting:Controls=\"PERIMETER_BOT_ZN_2 ZN DAYLIGHTINGCONTROLS\", only 0.523 of the zone or space is controlled.\n   ** Warning ** GetDaylightingControls: Fraction of zone or space controlled by the Daylighting reference points is < 1.0.\n   **   ~~~   ** ..discovered in Daylighting:Controls=\"PERIMETER_BOT_ZN_3 ZN DAYLIGHTINGCONTROLS\", only 0.523 of the zone or space is controlled.\n   ** Warning ** GetDaylightingControls: Fraction of zone or space controlled by the Daylighting reference points is < 1.0.\n   **   ~~~   ** ..discovered in Daylighting:Controls=\"PERIMETER_BOT_ZN_4 ZN DAYLIGHTINGCONTROLS\", only 0.523 of the zone or space is controlled.\n   ** Warning ** GetDaylightingControls: Fraction of zone or space controlled by the Daylighting reference points is < 1.0.\n   **   ~~~   ** ..discovered in Daylighting:Controls=\"PERIMETER_MID_ZN_1 ZN DAYLIGHTINGCONTROLS\", only 0.523 of the zone or space is controlled.\n   ** Warning ** GetDaylightingControls: Fraction of zone or space controlled by the Daylighting reference points is < 1.0.\n   **   ~~~   ** ..discovered in Daylighting:Controls=\"PERIMETER_MID_ZN_2 ZN DAYLIGHTINGCONTROLS\", only 0.523 of the zone or space is controlled.\n   ** Warning ** GetDaylightingControls: Fraction of zone or space controlled by the Daylighting reference points is < 1.0.\n   **   ~~~   ** ..discovered in Daylighting:Controls=\"PERIMETER_MID_ZN_3 ZN DAYLIGHTINGCONTROLS\", only 0.523 of the zone or space is controlled.\n   ** Warning ** GetDaylightingControls: Fraction of zone or space controlled by the Daylighting reference points is < 1.0.\n   **   ~~~   ** ..discovered in Daylighting:Controls=\"PERIMETER_MID_ZN_4 ZN DAYLIGHTINGCONTROLS\", only 0.523 of the zone or space is controlled.\n   ** Warning ** GetDaylightingControls: Fraction of zone or space controlled by the Daylighting reference points is < 1.0.\n   **   ~~~   ** ..discovered in Daylighting:Controls=\"PERIMETER_TOP_ZN_1 ZN DAYLIGHTINGCONTROLS\", only 0.523 of the zone or space is controlled.\n   ** Warning ** GetDaylightingControls: Fraction of zone or space controlled by the Daylighting reference points is < 1.0.\n   **   ~~~   ** ..discovered in Daylighting:Controls=\"PERIMETER_TOP_ZN_2 ZN DAYLIGHTINGCONTROLS\", only 0.523 of the zone or space is controlled.\n   ** Warning ** GetDaylightingControls: Fraction of zone or space controlled by the Daylighting reference points is < 1.0.\n   **   ~~~   ** ..discovered in Daylighting:Controls=\"PERIMETER_TOP_ZN_3 ZN DAYLIGHTINGCONTROLS\", only 0.523 of the zone or space is controlled.\n   ** Warning ** GetDaylightingControls: Fraction of zone or space controlled by the Daylighting reference points is < 1.0.\n   **   ~~~   ** ..discovered in Daylighting:Controls=\"PERIMETER_TOP_ZN_4 ZN DAYLIGHTINGCONTROLS\", only 0.523 of the zone or space is controlled.\n   ************* Beginning System Sizing Calculations\n   ** Warning ** Since Zone Minimum Air Flow Input Method = CONSTANT, input for Fixed Minimum Air Flow Rate will be ignored.\n   **   ~~~   ** Occurs in AirTerminal:SingleDuct:VAV:Reheat = CORE_BOTTOM ZN VAV TERMINAL\n   ** Warning ** Since Zone Minimum Air Flow Input Method = CONSTANT, input for Fixed Minimum Air Flow Rate will be ignored.\n   **   ~~~   ** Occurs in AirTerminal:SingleDuct:VAV:Reheat = CORE_MID ZN VAV TERMINAL\n   ** Warning ** Since Zone Minimum Air Flow Input Method = CONSTANT, input for Fixed Minimum Air Flow Rate will be ignored.\n   **   ~~~   ** Occurs in AirTerminal:SingleDuct:VAV:Reheat = CORE_TOP ZN VAV TERMINAL\n   ** Warning ** Since Zone Minimum Air Flow Input Method = CONSTANT, input for Fixed Minimum Air Flow Rate will be ignored.\n   **   ~~~   ** Occurs in AirTerminal:SingleDuct:VAV:Reheat = PERIMETER_BOT_ZN_1 ZN VAV TERMINAL\n   ** Warning ** Since Zone Minimum Air Flow Input Method = CONSTANT, input for Fixed Minimum Air Flow Rate will be ignored.\n   **   ~~~   ** Occurs in AirTerminal:SingleDuct:VAV:Reheat = PERIMETER_BOT_ZN_2 ZN VAV TERMINAL\n   ** Warning ** Since Zone Minimum Air Flow Input Method = CONSTANT, input for Fixed Minimum Air Flow Rate will be ignored.\n   **   ~~~   ** Occurs in AirTerminal:SingleDuct:VAV:Reheat = PERIMETER_BOT_ZN_3 ZN VAV TERMINAL\n   ** Warning ** Since Zone Minimum Air Flow Input Method = CONSTANT, input for Fixed Minimum Air Flow Rate will be ignored.\n   **   ~~~   ** Occurs in AirTerminal:SingleDuct:VAV:Reheat = PERIMETER_BOT_ZN_4 ZN VAV TERMINAL\n   ** Warning ** Since Zone Minimum Air Flow Input Method = CONSTANT, input for Fixed Minimum Air Flow Rate will be ignored.\n   **   ~~~   ** Occurs in AirTerminal:SingleDuct:VAV:Reheat = PERIMETER_MID_ZN_1 ZN VAV TERMINAL\n   ** Warning ** Since Zone Minimum Air Flow Input Method = CONSTANT, input for Fixed Minimum Air Flow Rate will be ignored.\n   **   ~~~   ** Occurs in AirTerminal:SingleDuct:VAV:Reheat = PERIMETER_MID_ZN_2 ZN VAV TERMINAL\n   ** Warning ** Since Zone Minimum Air Flow Input Method = CONSTANT, input for Fixed Minimum Air Flow Rate will be ignored.\n   **   ~~~   ** Occurs in AirTerminal:SingleDuct:VAV:Reheat = PERIMETER_MID_ZN_3 ZN VAV TERMINAL\n   ** Warning ** Since Zone Minimum Air Flow Input Method = CONSTANT, input for Fixed Minimum Air Flow Rate will be ignored.\n   **   ~~~   ** Occurs in AirTerminal:SingleDuct:VAV:Reheat = PERIMETER_MID_ZN_4 ZN VAV TERMINAL\n   ** Warning ** Since Zone Minimum Air Flow Input Method = CONSTANT, input for Fixed Minimum Air Flow Rate will be ignored.\n   **   ~~~   ** Occurs in AirTerminal:SingleDuct:VAV:Reheat = PERIMETER_TOP_ZN_1 ZN VAV TERMINAL\n   ** Warning ** Since Zone Minimum Air Flow Input Method = CONSTANT, input for Fixed Minimum Air Flow Rate will be ignored.\n   **   ~~~   ** Occurs in AirTerminal:SingleDuct:VAV:Reheat = PERIMETER_TOP_ZN_2 ZN VAV TERMINAL\n   ** Warning ** Since Zone Minimum Air Flow Input Method = CONSTANT, input for Fixed Minimum Air Flow Rate will be ignored.\n   **   ~~~   ** Occurs in AirTerminal:SingleDuct:VAV:Reheat = PERIMETER_TOP_ZN_3 ZN VAV TERMINAL\n   ** Warning ** Since Zone Minimum Air Flow Input Method = CONSTANT, input for Fixed Minimum Air Flow Rate will be ignored.\n   **   ~~~   ** Occurs in AirTerminal:SingleDuct:VAV:Reheat = PERIMETER_TOP_ZN_4 ZN VAV TERMINAL\n   ************* Beginning Plant Sizing Calculations\n   ** Warning ** GetOAControllerInputs: Controller:MechanicalVentilation=\"5 ZONE PVAV VENTILATION CONTROLLER\"\n   **   ~~~   ** Cannot locate a matching DesignSpecification:ZoneAirDistribution object for Zone=\"CORE_BOTTOM ZN\".\n   **   ~~~   ** Using default zone air distribution effectiveness of 1.0 for heating and cooling.\n   ** Warning ** GetOAControllerInputs: Controller:MechanicalVentilation=\"5 ZONE PVAV VENTILATION CONTROLLER\"\n   **   ~~~   ** Cannot locate a matching DesignSpecification:ZoneAirDistribution object for Zone=\"PERIMETER_BOT_ZN_1 ZN\".\n   **   ~~~   ** Using default zone air distribution effectiveness of 1.0 for heating and cooling.\n   ** Warning ** GetOAControllerInputs: Controller:MechanicalVentilation=\"5 ZONE PVAV VENTILATION CONTROLLER\"\n   **   ~~~   ** Cannot locate a matching DesignSpecification:ZoneAirDistribution object for Zone=\"PERIMETER_BOT_ZN_2 ZN\".\n   **   ~~~   ** Using default zone air distribution effectiveness of 1.0 for heating and cooling.\n   ** Warning ** GetOAControllerInputs: Controller:MechanicalVentilation=\"5 ZONE PVAV VENTILATION CONTROLLER\"\n   **   ~~~   ** Cannot locate a matching DesignSpecification:ZoneAirDistribution object for Zone=\"PERIMETER_BOT_ZN_3 ZN\".\n   **   ~~~   ** Using default zone air distribution effectiveness of 1.0 for heating and cooling.\n   ** Warning ** GetOAControllerInputs: Controller:MechanicalVentilation=\"5 ZONE PVAV VENTILATION CONTROLLER\"\n   **   ~~~   ** Cannot locate a matching DesignSpecification:ZoneAirDistribution object for Zone=\"PERIMETER_BOT_ZN_4 ZN\".\n   **   ~~~   ** Using default zone air distribution effectiveness of 1.0 for heating and cooling.\n   ** Warning ** GetOAControllerInputs: Controller:MechanicalVentilation=\"5 ZONE PVAV 1 VENTILATION CONTROLLER\"\n   **   ~~~   ** Cannot locate a matching DesignSpecification:ZoneAirDistribution object for Zone=\"CORE_MID ZN\".\n   **   ~~~   ** Using default zone air distribution effectiveness of 1.0 for heating and cooling.\n   ** Warning ** GetOAControllerInputs: Controller:MechanicalVentilation=\"5 ZONE PVAV 1 VENTILATION CONTROLLER\"\n   **   ~~~   ** Cannot locate a matching DesignSpecification:ZoneAirDistribution object for Zone=\"PERIMETER_MID_ZN_1 ZN\".\n   **   ~~~   ** Using default zone air distribution effectiveness of 1.0 for heating and cooling.\n   ** Warning ** GetOAControllerInputs: Controller:MechanicalVentilation=\"5 ZONE PVAV 1 VENTILATION CONTROLLER\"\n   **   ~~~   ** Cannot locate a matching DesignSpecification:ZoneAirDistribution object for Zone=\"PERIMETER_MID_ZN_2 ZN\".\n   **   ~~~   ** Using default zone air distribution effectiveness of 1.0 for heating and cooling.\n   ** Warning ** GetOAControllerInputs: Controller:MechanicalVentilation=\"5 ZONE PVAV 1 VENTILATION CONTROLLER\"\n   **   ~~~   ** Cannot locate a matching DesignSpecification:ZoneAirDistribution object for Zone=\"PERIMETER_MID_ZN_3 ZN\".\n   **   ~~~   ** Using default zone air distribution effectiveness of 1.0 for heating and cooling.\n   ** Warning ** GetOAControllerInputs: Controller:MechanicalVentilation=\"5 ZONE PVAV 1 VENTILATION CONTROLLER\"\n   **   ~~~   ** Cannot locate a matching DesignSpecification:ZoneAirDistribution object for Zone=\"PERIMETER_MID_ZN_4 ZN\".\n   **   ~~~   ** Using default zone air distribution effectiveness of 1.0 for heating and cooling.\n   ** Warning ** GetOAControllerInputs: Controller:MechanicalVentilation=\"5 ZONE PVAV 2 VENTILATION CONTROLLER\"\n   **   ~~~   ** Cannot locate a matching DesignSpecification:ZoneAirDistribution object for Zone=\"CORE_TOP ZN\".\n   **   ~~~   ** Using default zone air distribution effectiveness of 1.0 for heating and cooling.\n   ** Warning ** GetOAControllerInputs: Controller:MechanicalVentilation=\"5 ZONE PVAV 2 VENTILATION CONTROLLER\"\n   **   ~~~   ** Cannot locate a matching DesignSpecification:ZoneAirDistribution object for Zone=\"PERIMETER_TOP_ZN_1 ZN\".\n   **   ~~~   ** Using default zone air distribution effectiveness of 1.0 for heating and cooling.\n   ** Warning ** GetOAControllerInputs: Controller:MechanicalVentilation=\"5 ZONE PVAV 2 VENTILATION CONTROLLER\"\n   **   ~~~   ** Cannot locate a matching DesignSpecification:ZoneAirDistribution object for Zone=\"PERIMETER_TOP_ZN_2 ZN\".\n   **   ~~~   ** Using default zone air distribution effectiveness of 1.0 for heating and cooling.\n   ** Warning ** GetOAControllerInputs: Controller:MechanicalVentilation=\"5 ZONE PVAV 2 VENTILATION CONTROLLER\"\n   **   ~~~   ** Cannot locate a matching DesignSpecification:ZoneAirDistribution object for Zone=\"PERIMETER_TOP_ZN_3 ZN\".\n   **   ~~~   ** Using default zone air distribution effectiveness of 1.0 for heating and cooling.\n   ** Warning ** GetOAControllerInputs: Controller:MechanicalVentilation=\"5 ZONE PVAV 2 VENTILATION CONTROLLER\"\n   **   ~~~   ** Cannot locate a matching DesignSpecification:ZoneAirDistribution object for Zone=\"PERIMETER_TOP_ZN_4 ZN\".\n   **   ~~~   ** Using default zone air distribution effectiveness of 1.0 for heating and cooling.\n   ** Warning ** Output:Meter: invalid Key Name=\"DISTRICTCOOLING:FACILITY\" - not found.\n   ** Warning ** Output:Meter: invalid Key Name=\"DISTRICTHEATING:FACILITY\" - not found.\n   ** Warning ** Output:Meter:MeterFileOnly requested for \"Electricity:Facility\" (TimeStep), already on \"Output:Meter\". Will report to both eplusout.eso and eplusout.mtr\n   ************* Testing Individual Branch Integrity\n   ************* All Branches passed integrity testing\n   ************* Testing Individual Supply Air Path Integrity\n   ************* All Supply Air Paths passed integrity testing\n   ************* Testing Individual Return Air Path Integrity\n   ************* All Return Air Paths passed integrity testing\n   ************* No node connection errors were found.\n   ************* Beginning Simulation\n   ** Warning ** Processing Monthly Tabular Reports: Variable names not valid for this simulation\n   **   ~~~   ** ...use Output:Diagnostics,DisplayExtraWarnings; to show more details on individual variables.\n   ** Warning ** WetBulb not converged after 101 iterations(PsyTwbFnTdbWPb)\n   **   ~~~   **  Routine=Unknown, Environment=RUN PERIOD 1, at Simulation time=01/26 16:30 - 16:40\n   **   ~~~   **  Input Temperature = 6.25\n   **   ~~~   **  Input Humidity Ratio= 1.330154E-003\n   **   ~~~   **  Input Pressure = 99200.00\n   **   ~~~   **  Resultant Temperature= 8.06E-002\n   ** Warning ** CalcDoe2DXCoil: Coil:Cooling:DX:SingleSpeed=\"5 ZONE PVAV 1 SINGLE SPD DX CLG COIL\" - Air volume flow rate per watt of rated total cooling capacity is out of range at 1.950E-005 m3/s/W.\n   **   ~~~   **  Environment=RUN PERIOD 1, at Simulation time=03/10 10:40 - 10:50\n   **   ~~~   ** Expected range for VolumeFlowPerRatedTotalCapacity=[2.684E-005--6.713E-005]\n   **   ~~~   ** Possible causes include inconsistent air flow rates in system components,\n   **   ~~~   ** or variable air volume [VAV] system using incorrect coil type.\n   ** Warning ** CalcDoe2DXCoil: Coil:Cooling:DX:SingleSpeed \"5 ZONE PVAV 1 SINGLE SPD DX CLG COIL\" - Full load outlet air dry-bulb temperature < 2C. This indicates the possibility of coil frost/freeze. Outlet temperature = -21.39 C.\n   **   ~~~   **  ...Occurrence info = RUN PERIOD 1, 03/10 10:40 - 10:50\n   **   ~~~   ** ... Possible reasons for low outlet air dry-bulb temperatures are: This DX coil\n   **   ~~~   **    1) may have a low inlet air dry-bulb temperature. Inlet air temperature = 15.033 C.\n   **   ~~~   **    2) may have a low air flow rate per watt of cooling capacity. Check inputs.\n   **   ~~~   **    3) is used as part of a HX assisted cooling coil which uses a high sensible effectiveness. Check inputs.\n   ** Warning ** The resource referenced by LifeCycleCost:UsePriceEscalation= \"U.S. AVG  COMMERCIAL-ELECTRICITY\" has no energy cost. \n   **   ~~~   ** ... It is likely that the wrong resource is used. The resource should match the meter used in Utility:Tariff.\n   ** Warning ** The resource referenced by LifeCycleCost:UsePriceEscalation= \"U.S. AVG  COMMERCIAL-DISTILLATE OIL\" has no energy cost. \n   **   ~~~   ** ... It is likely that the wrong resource is used. The resource should match the meter used in Utility:Tariff.\n   ** Warning ** The resource referenced by LifeCycleCost:UsePriceEscalation= \"U.S. AVG  COMMERCIAL-RESIDUAL OIL\" has no energy cost. \n   **   ~~~   ** ... It is likely that the wrong resource is used. The resource should match the meter used in Utility:Tariff.\n   ** Warning ** The resource referenced by LifeCycleCost:UsePriceEscalation= \"U.S. AVG  COMMERCIAL-NATURAL GAS\" has no energy cost. \n   **   ~~~   ** ... It is likely that the wrong resource is used. The resource should match the meter used in Utility:Tariff.\n   ** Warning ** The resource referenced by LifeCycleCost:UsePriceEscalation= \"U.S. AVG  COMMERCIAL-COAL\" has no energy cost. \n   **   ~~~   ** ... It is likely that the wrong resource is used. The resource should match the meter used in Utility:Tariff.\n   ************* Simulation Error Summary *************\n   ************* There are 5 unused schedules in input.\n   ************* There are 5 unused week schedules in input.\n   ************* There are 12 unused day schedules in input.\n   ************* Use Output:Diagnostics,DisplayUnusedSchedules; to see them.\n   *************\n   ************* ===== Recurring Error Summary =====\n   ************* The following recurring error messages occurred.\n   *************\n   *************  ** Warning ** Plant loop exceeding upper temperature limit, PlantLoop=\"MAIN SERVICE WATER LOOP\"\n   *************  **   ~~~   **   This error occurred 71589 total times;\n   *************  **   ~~~   **   during Warmup 9542 times;\n   *************  **   ~~~   **   during Sizing 0 times.\n   *************  **   ~~~   **   Max=82.222222\n   *************\n   *************  ** Warning ** WetBulb not converged after max iterations(PsyTwbFnTdbWPb)\n   *************  **   ~~~   **   This error occurred 3 total times;\n   *************  **   ~~~   **   during Warmup 0 times;\n   *************  **   ~~~   **   during Sizing 0 times.\n   *************\n   *************  ** Warning ** CalcDoe2DXCoil: Coil:Cooling:DX:SingleSpeed=\"5 ZONE PVAV 1 SINGLE SPD DX CLG COIL\" - Air volume flow rate per watt of rated total cooling capacity is out of range error continues...\n   *************  **   ~~~   **   This error occurred 78484 total times;\n   *************  **   ~~~   **   during Warmup 0 times;\n   *************  **   ~~~   **   during Sizing 0 times.\n   *************  **   ~~~   **   Max=0.000027  Min=0.000015\n   *************\n   *************  ** Warning ** CalcDoe2DXCoil: Coil:Cooling:DX:SingleSpeed=\"5 ZONE PVAV 1 SINGLE SPD DX CLG COIL\" - Full load outlet temperature indicates a possibility of frost/freeze error continues. Outlet air temperature statistics follow:\n   *************  **   ~~~   **   This error occurred 12639 total times;\n   *************  **   ~~~   **   during Warmup 0 times;\n   *************  **   ~~~   **   during Sizing 0 times.\n   *************  **   ~~~   **   Max=1.994502  Min=-31.540103\n   *************\n   *************\n   ************* ===== Final Error Summary =====\n   ************* The following error categories occurred.  Consider correcting or noting.\n   ************* Nominally Unused Constructions\n   ************* ..The nominally unused constructions warning is provided to alert you to potential conditions that can cause\n   ************* ..extra time during simulation. Each construction is calculated by the algorithm indicated in the HeatBalanceAlgorithm\n   ************* ..object. You may remove the constructions indicated (when you use the DisplayExtraWarnings option).\n   *************\n   ************* EnergyPlus Warmup Error Summary. During Warmup: 0 Warning; 0 Severe Errors.\n   ************* EnergyPlus Sizing Error Summary. During Sizing: 54 Warning; 0 Severe Errors.\n   ************* EnergyPlus Completed Successfully-- 162793 Warning; 0 Severe Errors; Elapsed Time=00hr 00min 12.62sec\n",
   "file_paths" : 
   [
      "/private/var/folders/bb/ngmb9l4d165fp8n163x9x8t40000gn/T/osmodel-a08b-a2d3-6417-750b-1718302008-0/resources/generated_files",
      "./files",
      "./weather",
      "../../files",
      "../../weather",
      "./"
   ],
   "hash" : "693C45E5",
   "run_options" : null,
   "seed_file" : "../office_chicago_pvav.osm",
   "started_at" : "20240613T180715Z",
   "steps" : 
   [
      {
         "arguments" : {},
         "description" : "This measure creates a facsimile of the HVAC grid layout in the OpenStudio Application in an interactive html report. The user can optionally select loops to add Output:Variable to view node timeseries output data.",
         "measure_dir_name" : "detailed_hvac_viewer 1 1",
         "modeler_description" : "The user is asked to provided the following parameters:\n- A plantLoop or airLoop from the model (dropdown)\n- A boolean to include or exclude demand nodes\n- Which variable they want to output for each node:\n    * System Node Temperature\n    * System Node Setpoint Temperature\n    * System Node Mass Flow Rate\n    * etc.",
         "name" : "Detailed HVAC Viewer",
         "result" : 
         {
            "completed_at" : "20240613T180729Z",
            "measure_class_name" : "DetailedHVACViewer",
            "measure_display_name" : "Detailed HVAC Viewer",
            "measure_name" : "detailed_hvac_viewer",
            "measure_taxonomy" : "Reporting.Troubleshooting",
            "measure_type" : "ReportingMeasure",
            "measure_uid" : "416a484f-bd28-4db8-8926-7d70740390eb",
            "measure_version_id" : "0606fe63-de0c-4a04-a502-a9d30ddc55a3",
            "measure_version_modified" : "20240613T180705Z",
            "measure_xml_checksum" : "C068F366",
            "started_at" : "20240613T180728Z",
            "stderr" : "",
            "stdout" : "[openstudio.energyplus.SqlFile] <Debug> Dictionary Built\n[openstudio.energyplus.SqlFile] <Debug> Making time series for envPeriod = 'RUN PERIOD 1', reportingFrequency = 'Hourly', timeSeriesName = 'System Node Temperature', keyValue = 'VAV Hot Water Loop Supply Inlet Node'\n[openstudio.energyplus.SqlFile] <Debug> Tuple: RUN PERIOD 1, Hourly, System Node Temperature, VAV Hot Water Loop Supply Inlet Node not found in data dictionary.\n[openstudio.energyplus.SqlFile] <Debug> Trying query: RUN PERIOD 1, Hourly, System Node Temperature, VAV HOT WATER LOOP SUPPLY INLET NODE\n[openstudio.energyplus.SqlFile] <Debug> Making time series for envPeriod = 'RUN PERIOD 1', reportingFrequency = 'Hourly', timeSeriesName = 'System Node Temperature', keyValue = 'VAV HOT WATER LOOP SUPPLY INLET NODE'\n[openstudio.energyplus.SqlFile] <Debug> RUN PERIOD 1\n[openstudio.energyplus.SqlFile] <Debug> System Node Temperature\n[openstudio.energyplus.SqlFile] <Debug> SQL Query:\nSELECT dt.VariableValue, Time.Year, Time.Month, Time.Day, Time.Interval FROM ReportVariableData dt INNER JOIN Time ON Time.timeIndex = dt.TimeIndex WHERE  dt.ReportVariableDataDictionaryIndex=3080 AND Time.EnvironmentPeriodIndex = 3Return Code:\n100\n[openstudio.energyplus.SqlFile] <Debug> Time series found\n[openstudio.energyplus.SqlFile] <Debug> Time series found\n[openstudio.energyplus.SqlFile] <Debug> Making time series for envPeriod = 'RUN PERIOD 1', reportingFrequency = 'Hourly', timeSeriesName = 'System Node Mass Flow Rate', keyValue = 'VAV Hot Water Loop Supply Inlet Node'\n[openstudio.energyplus.SqlFile] <Debug> Tuple: RUN PERIOD 1, Hourly, System Node Mass Flow Rate, VAV Hot Water Loop Supply Inlet Node not found in data dictionary.\n[openstudio.energyplus.SqlFile] <Debug> Trying query: RUN PERIOD 1, Hourly, System Node Mass Flow Rate, VAV HOT WATER LOOP SUPPLY INLET NODE\n[openstudio.energyplus.SqlFile] <Debug> Making time series for envPeriod = 'RUN PERIOD 1', reportingFrequency = 'Hourly', timeSeriesName = 'System Node Mass Flow Rate', keyValue = 'VAV HOT WATER LOOP SUPPLY INLET NODE'\n[openstudio.energyplus.SqlFile] <Debug> RUN PERIOD 1\n[openstudio.energyplus.SqlFile] <Debug> System Node Mass Flow Rate\n[openstudio.energyplus.SqlFile] <Debug> SQL Query:\nSELECT dt.VariableValue, Time.Year, Time.Month, Time.Day, Time.Interval FROM ReportVariableData dt INNER JOIN Time ON Time.timeIndex = dt.TimeIndex WHERE  dt.ReportVariableDataDictionaryIndex=3081 AND Time.EnvironmentPeriodIndex = 3Return Code:\n100\n[openstudio.energyplus.SqlFile] <Debug> Time series found\n[openstudio.energyplus.SqlFile] <Debug> Time series found\n[openstudio.energyplus.SqlFile] <Debug> Making time series for envPeriod = 'RUN PERIOD 1', reportingFrequency = 'Hourly', timeSeriesName = 'System Node Temperature', keyValue = 'VAV Hot Water Loop Var Spd Pump Oulet Node'\n[openstudio.energyplus.SqlFile] <Debug> Tuple: RUN PERIOD 1, Hourly, System Node Temperature, VAV Hot Water Loop Var Spd Pump Oulet Node not found in data dictionary.\n[openstudio.energyplus.SqlFile] <Debug> Trying query: RUN PERIOD 1, Hourly, System Node Temperature, VAV HOT WATER LOOP VAR SPD PUMP OULET NODE\n[openstudio.energyplus.SqlFile] <Debug> Making time series for envPeriod = 'RUN PERIOD 1', reportingFrequency = 'Hourly', timeSeriesName = 'System Node Temperature', keyValue = 'VAV HOT WATER LOOP VAR SPD PUMP OULET NODE'\n[openstudio.energyplus.SqlFile] <Debug> RUN PERIOD 1\n[openstudio.energyplus.SqlFile] <Debug> System Node Temperature\n[openstudio.energyplus.SqlFile] <Debug> SQL Query:\nSELECT dt.VariableValue, Time.Year, Time.Month, Time.Day, Time.Interval FROM ReportVariableData dt INNER JOIN Time ON Time.timeIndex = dt.TimeIndex WHERE  dt.ReportVariableDataDictionaryIndex=3082 AND Time.EnvironmentPeriodIndex = 3Return Code:\n100\n[openstudio.energyplus.SqlFile] <Debug> Time series found\n[openstudio.energyplus.SqlFile] <Debug> Time series found\n[openstudio.energyplus.SqlFile] <Debug> Making time series for envPeriod = 'RUN PERIOD 1', reportingFrequency = 'Hourly', timeSeriesName = 'System Node Mass Flow Rate', keyValue = 'VAV Hot Water Loop Var Spd Pump Oulet Node'\n[openstudio.energyplus.SqlFile] <Debug> Tuple: RUN PERIOD 1, Hourly, System Node Mass Flow Rate, VAV Hot Water Loop Var Spd Pump Oulet Node not found in data dictionary.\n[openstudio.energyplus.SqlFile] <Debug> Trying query: RUN PERIOD 1, Hourly, System Node Mass Flow Rate, VAV HOT WATER LOOP VAR SPD PUMP OULET NODE\n[openstudio.energyplus.SqlFile] <Debug> Making time series for envPeriod = 'RUN PERIOD 1', reportingFrequency = 'Hourly', timeSeriesName = 'System Node Mass Flow Rate', keyValue = 'VAV HOT WATER LOOP VAR SPD PUMP OULET NODE'\n[openstudio.energyplus.SqlFile] <Debug> RUN PERIOD 1\n[openstudio.energyplus.SqlFile] <Debug> System Node Mass Flow Rate\n[openstudio.energyplus.SqlFile] <Debug> SQL Query:\nSELECT dt.VariableValue, Time.Year, Time.Month, Time.Day, Time.Interval FROM ReportVariableData dt INNER JOIN Time ON Time.timeIndex = dt.TimeIndex WHERE  dt.ReportVariableDataDictionaryIndex=3083 AND Time.EnvironmentPeriodIndex = 3Return Code:\n100\n[openstudio.energyplus.SqlFile] <Debug> Time series found\n[openstudio.energyplus.SqlFile] <Debug> Time series found\n[openstudio.energyplus.SqlFile] <Debug> Making time series for envPeriod = 'RUN PERIOD 1', reportingFrequency = 'Hourly', timeSeriesName = 'System Node Temperature', keyValue = 'VAV Hot Water Loop HW Boiler Inlet Node'\n[openstudio.energyplus.SqlFile] <Debug> Tuple: RUN PERIOD 1, Hourly, System Node Temperature, VAV Hot Water Loop HW Boiler Inlet Node not found in data dictionary.\n[openstudio.energyplus.SqlFile] <Debug> Trying query: RUN PERIOD 1, Hourly, System Node Temperature, VAV HOT WATER LOOP HW BOILER INLET NODE\n[openstudio.energyplus.SqlFile] <Debug> Making time series for envPeriod = 'RUN PERIOD 1', reportingFrequency = 'Hourly', timeSeriesName = 'System Node Temperature', keyValue = 'VAV HOT WATER LOOP HW BOILER INLET NODE'\n[openstudio.energyplus.SqlFile] <Debug> RUN PERIOD 1\n[openstudio.energyplus.SqlFile] <Debug> System Node Temperature\n[openstudio.energyplus.SqlFile] <Debug> SQL Query:\nSELECT dt.VariableValue, Time.Year, Time.Month, Time.Day, Time.Interval FROM ReportVariableData dt INNER JOIN Time ON Time.timeIndex = dt.TimeIndex WHERE  dt.ReportVariableDataDictionaryIndex=3084 AND Time.EnvironmentPeriodIndex = 3Return Code:\n100\n[openstudio.energyplus.SqlFile] <Debug> Time series found\n[openstudio.energyplus.SqlFile] <Debug> Time series found\n[openstudio.energyplus.SqlFile] <Debug> Making time series for envPeriod = 'RUN PERIOD 1', reportingFrequency = 'Hourly', timeSeriesName = 'System Node Mass Flow Rate', keyValue = 'VAV Hot Water Loop HW Boiler Inlet Node'\n[openstudio.energyplus.SqlFile] <Debug> Tuple: RUN PERIOD 1, Hourly, System Node Mass Flow Rate, VAV Hot Water Loop HW Boiler Inlet Node not found in data dictionary.\n[openstudio.energyplus.SqlFile] <Debug> Trying query: RUN PERIOD 1, Hourly, System Node Mass Flow Rate, VAV HOT WATER LOOP HW BOILER INLET NODE\n[openstudio.energyplus.SqlFile] <Debug> Making time series for envPeriod = 'RUN PERIOD 1', reportingFrequency = 'Hourly', timeSeriesName = 'System Node Mass Flow Rate', keyValue = 'VAV HOT WATER LOOP HW BOILER INLET NODE'\n[openstudio.energyplus.SqlFile] <Debug> RUN PERIOD 1\n[openstudio.energyplus.SqlFile] <Debug> System Node Mass Flow Rate\n[openstudio.energyplus.SqlFile] <Debug> SQL Query:\nSELECT dt.VariableValue, Time.Year, Time.Month, Time.Day, Time.Interval FROM ReportVariableData dt INNER JOIN Time ON Time.timeIndex = dt.TimeIndex WHERE  dt.ReportVariableDataDictionaryIndex=3085 AND Time.EnvironmentPeriodIndex = 3Return Code:\n100\n[openstudio.energyplus.SqlFile] <Debug> Time series found\n[openstudio.energyplus.SqlFile] <Debug> Time series found\n[openstudio.energyplus.SqlFile] <Debug> Making time series for envPeriod = 'RUN PERIOD 1', reportingFrequency = 'Hourly', timeSeriesName = 'System Node Temperature', keyValue = 'VAV Hot Water Loop HW Boiler Outlet Node'\n[openstudio.energyplus.SqlFile] <Debug> Tuple: RUN PERIOD 1, Hourly, System Node Temperature, VAV Hot Water Loop HW Boiler Outlet Node not found in data dictionary.\n[openstudio.energyplus.SqlFile] <Debug> Trying query: RUN PERIOD 1, Hourly, System Node Temperature, VAV HOT WATER LOOP HW BOILER OUTLET NODE\n[openstudio.energyplus.SqlFile] <Debug> Making time series for envPeriod = 'RUN PERIOD 1', reportingFrequency = 'Hourly', timeSeriesName = 'System Node Temperature', keyValue = 'VAV HOT WATER LOOP HW BOILER OUTLET NODE'\n[openstudio.energyplus.SqlFile] <Debug> RUN PERIOD 1\n[openstudio.energyplus.SqlFile] <Debug> System Node Temperature\n[openstudio.energyplus.SqlFile] <Debug> SQL Query:\nSELECT dt.VariableValue, Time.Year, Time.Month, Time.Day, Time.Interval FROM ReportVariableData dt INNER JOIN Time ON Time.timeIndex = dt.TimeIndex WHERE  dt.ReportVariableDataDictionaryIndex=3086 AND Time.EnvironmentPeriodIndex = 3Return Code:\n100\n[openstudio.energyplus.SqlFile] <Debug> Time series found\n[openstudio.energyplus.SqlFile] <Debug> Time series found\n[openstudio.energyplus.SqlFile] <Debug> Making time series for envPeriod = 'RUN PERIOD 1', reportingFrequency = 'Hourly', timeSeriesName = 'System Node Mass Flow Rate', keyValue = 'VAV Hot Water Loop HW Boiler Outlet Node'\n[openstudio.energyplus.SqlFile] <Debug> Tuple: RUN PERIOD 1, Hourly, System Node Mass Flow Rate, VAV Hot Water Loop HW Boiler Outlet Node not found in data dictionary.\n[openstudio.energyplus.SqlFile] <Debug> Trying query: RUN PERIOD 1, Hourly, System Node Mass Flow Rate, VAV HOT WATER LOOP HW BOILER OUTLET NODE\n[openstudio.energyplus.SqlFile] <Debug> Making time series for envPeriod = 'RUN PERIOD 1', reportingFrequency = 'Hourly', timeSeriesName = 'System Node Mass Flow Rate', keyValue = 'VAV HOT WATER LOOP HW BOILER OUTLET NODE'\n[openstudio.energyplus.SqlFile] <Debug> RUN PERIOD 1\n[openstudio.energyplus.SqlFile] <Debug> System Node Mass Flow Rate\n[openstudio.energyplus.SqlFile] <Debug> SQL Query:\nSELECT dt.VariableValue, Time.Year, Time.Month, Time.Day, Time.Interval FROM ReportVariableData dt INNER JOIN Time ON Time.timeIndex = dt.TimeIndex WHERE  dt.ReportVariableDataDictionaryIndex=3087 AND Time.EnvironmentPeriodIndex = 3Return Code:\n100\n[openstudio.energyplus.SqlFile] <Debug> Time series found\n[openstudio.energyplus.SqlFile] <Debug> Time series found\n[openstudio.energyplus.SqlFile] <Debug> Making time series for envPeriod = 'RUN PERIOD 1', reportingFrequency = 'Hourly', timeSeriesName = 'System Node Temperature', keyValue = 'VAV Hot Water Loop Supply Outlet Node'\n[openstudio.energyplus.SqlFile] <Debug> Tuple: RUN PERIOD 1, Hourly, System Node Temperature, VAV Hot Water Loop Supply Outlet Node not found in data dictionary.\n[openstudio.energyplus.SqlFile] <Debug> Trying query: RUN PERIOD 1, Hourly, System Node Temperature, VAV HOT WATER LOOP SUPPLY OUTLET NODE\n[openstudio.energyplus.SqlFile] <Debug> Making time series for envPeriod = 'RUN PERIOD 1', reportingFrequency = 'Hourly', timeSeriesName = 'System Node Temperature', keyValue = 'VAV HOT WATER LOOP SUPPLY OUTLET NODE'\n[openstudio.energyplus.SqlFile] <Debug> RUN PERIOD 1\n[openstudio.energyplus.SqlFile] <Debug> System Node Temperature\n[openstudio.energyplus.SqlFile] <Debug> SQL Query:\nSELECT dt.VariableValue, Time.Year, Time.Month, Time.Day, Time.Interval FROM ReportVariableData dt INNER JOIN Time ON Time.timeIndex = dt.TimeIndex WHERE  dt.ReportVariableDataDictionaryIndex=3088 AND Time.EnvironmentPeriodIndex = 3Return Code:\n100\n[openstudio.energyplus.SqlFile] <Debug> Time series found\n[openstudio.energyplus.SqlFile] <Debug> Time series found\n[openstudio.energyplus.SqlFile] <Debug> Making time series for envPeriod = 'RUN PERIOD 1', reportingFrequency = 'Hourly', timeSeriesName = 'System Node Mass Flow Rate', keyValue = 'VAV Hot Water Loop Supply Outlet Node'\n[openstudio.energyplus.SqlFile] <Debug> Tuple: RUN PERIOD 1, Hourly, System Node Mass Flow Rate, VAV Hot Water Loop Supply Outlet Node not found in data dictionary.\n[openstudio.energyplus.SqlFile] <Debug> Trying query: RUN PERIOD 1, Hourly, System Node Mass Flow Rate, VAV HOT WATER LOOP SUPPLY OUTLET NODE\n[openstudio.energyplus.SqlFile] <Debug> Making time series for envPeriod = 'RUN PERIOD 1', reportingFrequency = 'Hourly', timeSeriesName = 'System Node Mass Flow Rate', keyValue = 'VAV HOT WATER LOOP SUPPLY OUTLET NODE'\n[openstudio.energyplus.SqlFile] <Debug> RUN PERIOD 1\n[openstudio.energyplus.SqlFile] <Debug> System Node Mass Flow Rate\n[openstudio.energyplus.SqlFile] <Debug> SQL Query:\nSELECT dt.VariableValue, Time.Year, Time.Month, Time.Day, Time.Interval FROM ReportVariableData dt INNER JOIN Time ON Time.timeIndex = dt.TimeIndex WHERE  dt.ReportVariableDataDictionaryIndex=3089 AND Time.EnvironmentPeriodIndex = 3Return Code:\n100\n[openstudio.energyplus.SqlFile] <Debug> Time series found\n[openstudio.energyplus.SqlFile] <Debug> Time series found\n[OpenStudio] <Warn> getSharedResourcesPath is deprecated.\n",
            "step_errors" : [],
            "step_files" : 
            [
               "/private/var/folders/bb/ngmb9l4d165fp8n163x9x8t40000gn/T/osmodel-a08b-a2d3-6417-750b-1718302008-0/resources/run/000_detailed_hvac_viewer 1 1/hvac_data.json",
               "/private/var/folders/bb/ngmb9l4d165fp8n163x9x8t40000gn/T/osmodel-a08b-a2d3-6417-750b-1718302008-0/resources/run/000_detailed_hvac_viewer 1 1/detailed_hvac_report.html"
            ],
            "step_info" : [],
            "step_result" : "Success",
            "step_values" : 
            [
               {
                  "name" : "include_demand_nodes",
                  "value" : false
               },
               {
                  "name" : "reporting_frequency",
                  "value" : "Hourly"
               },
               {
                  "name" : "System Node Temperature",
                  "value" : true
               },
               {
                  "name" : "System Node Setpoint Temperature",
                  "value" : false
               },
               {
                  "name" : "System Node Mass Flow Rate",
                  "value" : true
               },
               {
                  "name" : "System Node Humidity Ratio",
                  "value" : false
               },
               {
                  "name" : "System Node Setpoint High Temperature",
                  "value" : false
               },
               {
                  "name" : "System Node Setpoint Low Temperature",
                  "value" : false
               },
               {
                  "name" : "System Node Setpoint Humidity Ratio",
                  "value" : false
               },
               {
                  "name" : "System Node Setpoint Minimum Humidity Ratio",
                  "value" : false
               },
               {
                  "name" : "System Node Setpoint Maximum Humidity Ratio",
                  "value" : false
               },
               {
                  "name" : "System Node Relative Humidity",
                  "value" : false
               },
               {
                  "name" : "System Node Pressure",
                  "value" : false
               },
               {
                  "name" : "System Node Standard Density Volume Flow Rate",
                  "value" : false
               },
               {
                  "name" : "System Node Current Density Volume Flow Rate",
                  "value" : false
               },
               {
                  "name" : "System Node Current Density",
                  "value" : false
               },
               {
                  "name" : "System Node Enthalpy",
                  "value" : false
               },
               {
                  "name" : "System Node Wetbulb Temperature",
                  "value" : false
               },
               {
                  "name" : "System Node Dewpoint Temperature",
                  "value" : false
               },
               {
                  "name" : "System Node Quality",
                  "value" : false
               },
               {
                  "name" : "System Node Height",
                  "value" : false
               }
            ],
            "step_warnings" : []
         }
      }
   ],
   "updated_at" : "20240613T180731Z",
   "weather_file" : "USA_IL_Chicago-OHare.Intl.AP.725300_TMY3.epw"
}