Program Version,EnergyPlus, Version 23.2.0-7636e6b3e9, YMD=2024.06.13 14:07
! <Version>, Version ID
 Version, 23.2
! <Timesteps per Hour>, #TimeSteps, Minutes per TimeStep {minutes}
 Timesteps per Hour,  6, 10
! <System Convergence Limits>, Minimum System TimeStep {minutes}, Max HVAC Iterations, Minimum Plant Iterations, Maximum Plant Iterations
 System Convergence Limits, 2, 25, 2, 8
! <Simulation Control>, Do Zone Sizing, Do System Sizing, Do Plant Sizing, Do Design Days, Do Weather Simulation, Do HVAC Sizing Simulation
 Simulation Control, Yes, Yes, Yes, No, Yes, No
! <Performance Precision Tradeoffs>, Use Coil Direct Simulation, Zone Radiant Exchange Algorithm, Override Mode, Number of Timestep In Hour, Force Euler Method, Minimum Number of Warmup Days, Force Suppress All Begin Environment Resets, Minimum System Timestep, MaxZoneTempDiff, MaxAllowedDelTemp
 Performance Precision Tradeoffs, No, ScriptF, Normal, 6, No, 1, No, 2.0, 0.300, 2.0000E-003
! <Output Reporting Tolerances>, Tolerance for Time Heating Setpoint Not Met, Tolerance for Zone Cooling Setpoint Not Met Time
 Output Reporting Tolerances, 0.556, 0.556, 
! <Site:GroundTemperature:BuildingSurface>,Jan{C},Feb{C},Mar{C},Apr{C},May{C},Jun{C},Jul{C},Aug{C},Sep{C},Oct{C},Nov{C},Dec{C}
 Site:GroundTemperature:BuildingSurface,  20.49,  20.43,  20.44,  20.50,  20.59,  22.83,  23.24,  23.33,  23.36,  21.14,  20.78,  20.61
! <Site:GroundTemperature:FCfactorMethod>,Jan{C},Feb{C},Mar{C},Apr{C},May{C},Jun{C},Jul{C},Aug{C},Sep{C},Oct{C},Nov{C},Dec{C}
 Site:GroundTemperature:FCfactorMethod,  -1.89,  -3.06,  -0.99,   2.23,  10.68,  17.20,  21.60,  22.94,  20.66,  15.60,   8.83,   2.56
! <Site:GroundTemperature:Shallow>,Jan{C},Feb{C},Mar{C},Apr{C},May{C},Jun{C},Jul{C},Aug{C},Sep{C},Oct{C},Nov{C},Dec{C}
 Site:GroundTemperature:Shallow,  13.00,  13.00,  13.00,  13.00,  13.00,  13.00,  13.00,  13.00,  13.00,  13.00,  13.00,  13.00
! <Site:GroundTemperature:Deep>,Jan{C},Feb{C},Mar{C},Apr{C},May{C},Jun{C},Jul{C},Aug{C},Sep{C},Oct{C},Nov{C},Dec{C}
 Site:GroundTemperature:Deep,  16.00,  16.00,  16.00,  16.00,  16.00,  16.00,  16.00,  16.00,  16.00,  16.00,  16.00,  16.00
! <Site:GroundReflectance>,Jan{dimensionless},Feb{dimensionless},Mar{dimensionless},Apr{dimensionless},May{dimensionless},Jun{dimensionless},Jul{dimensionless},Aug{dimensionless},Sep{dimensionless},Oct{dimensionless},Nov{dimensionless},Dec{dimensionless}
 Site:GroundReflectance,  0.20,  0.20,  0.20,  0.20,  0.20,  0.20,  0.20,  0.20,  0.20,  0.20,  0.20,  0.20
! <Site:GroundReflectance:SnowModifier>, Normal, Daylighting {dimensionless}
 Site:GroundReflectance:SnowModifier,   1.000,   1.000
! <Site:GroundReflectance:Snow>,Jan{dimensionless},Feb{dimensionless},Mar{dimensionless},Apr{dimensionless},May{dimensionless},Jun{dimensionless},Jul{dimensionless},Aug{dimensionless},Sep{dimensionless},Oct{dimensionless},Nov{dimensionless},Dec{dimensionless}
 Site:GroundReflectance:Snow,  0.20,  0.20,  0.20,  0.20,  0.20,  0.20,  0.20,  0.20,  0.20,  0.20,  0.20,  0.20
! <Site:GroundReflectance:Snow:Daylighting>,Jan{dimensionless},Feb{dimensionless},Mar{dimensionless},Apr{dimensionless},May{dimensionless},Jun{dimensionless},Jul{dimensionless},Aug{dimensionless},Sep{dimensionless},Oct{dimensionless},Nov{dimensionless},Dec{dimensionless}
 Site:GroundReflectance:Snow:Daylighting,  0.20,  0.20,  0.20,  0.20,  0.20,  0.20,  0.20,  0.20,  0.20,  0.20,  0.20,  0.20
! <Environment:Weather Station>,Wind Sensor Height Above Ground {m},Wind Speed Profile Exponent {},Wind Speed Profile Boundary Layer Thickness {m},Air Temperature Sensor Height Above Ground {m},Wind Speed Modifier Coefficient-Internal,Temperature Modifier Coefficient-Internal
Environment:Weather Station,10.000,0.140,270.000,1.500,1.586,9.750E-003
! <Site:Location>, Location Name, Latitude {N+/S- Deg}, Longitude {E+/W- Deg},  Time Zone Number {GMT+/-}, Elevation {m},  Standard Pressure at Elevation {Pa}, Standard RhoAir at Elevation
Site:Location,Chicago Ohare Intl Ap IL USA TMY3 WMO#=725300,41.98,-87.92,-6.00,201.00,98934,1.1759
! <Site Water Mains Temperature Information>,Calculation Method{},Water Mains Temperature Schedule Name{},Annual Average Outdoor Air Temperature{C},Maximum Difference In Monthly Average Outdoor Air Temperatures{deltaC},Fixed Default Water Mains Temperature{C}
Site Water Mains Temperature Information,Correlation,NA,9.93,28.70,NA
! <Building Information>, Building Name,North Axis {deg},Terrain,  Loads Convergence Tolerance Value,Temperature Convergence Tolerance Value,  Solar Distribution,Maximum Number of Warmup Days,Minimum Number of Warmup Days
 Building Information,-MediumOffice-ASHRAE 169-2006-5A created: 2018-10-22 12:11:34 -0600,0.000,City,4.00000E-002,0.20000,FullInteriorAndExterior,25,6
! <Inside Convection Algorithm>, Algorithm {Simple | TARP | CeilingDiffuser | AdaptiveConvectionAlgorithm}
Inside Convection Algorithm,TARP
! <Outside Convection Algorithm>, Algorithm {SimpleCombined | TARP | MoWitt | DOE-2 | AdaptiveConvectionAlgorithm}
Outside Convection Algorithm,TARP
! <Sky Radiance Distribution>, Value {Anisotropic}
Sky Radiance Distribution,Anisotropic
! <Zone Air Solution Algorithm>, Algorithm {ThirdOrderBackwardDifference | AnalyticalSolution | EulerMethod}, Space Heat Balance Sizing, Space Heat Balance Simulation
 Zone Air Solution Algorithm, ThirdOrderBackwardDifference, No, No
! <Zone Air Carbon Dioxide Balance Simulation>, Simulation {Yes/No}, Carbon Dioxide Concentration
 Zone Air Carbon Dioxide Balance Simulation, No,N/A
! <Zone Air Generic Contaminant Balance Simulation>, Simulation {Yes/No}, Generic Contaminant Concentration
 Zone Air Generic Contaminant Balance Simulation, No,N/A
! <Zone Air Mass Flow Balance Simulation>, Enforce Mass Balance, Adjust Zone Mixing and Return {AdjustMixingOnly | AdjustReturnOnly | AdjustMixingThenReturn | AdjustReturnThenMixing | None}, Adjust Zone Infiltration {AddInfiltration | AdjustInfiltration | None}, Infiltration Zones {MixingSourceZonesOnly | AllZones}
 Zone Air Mass Flow Balance Simulation, No,N/A,N/A,N/A
! <HVACSystemRootFindingAlgorithm>, Value {RegulaFalsi | Bisection | BisectionThenRegulaFalsi | RegulaFalsiThenBisection}
 HVACSystemRootFindingAlgorithm, RegulaFalsi
! <Environment:Site Atmospheric Variation>,Wind Speed Profile Exponent {},Wind Speed Profile Boundary Layer Thickness {m},Air Temperature Gradient Coefficient {K/m}
Environment:Site Atmospheric Variation,0.330,460.000,6.500000E-003
! <Surface Geometry>,Starting Corner,Vertex Input Direction,Coordinate System,Daylight Reference Point Coordinate System,Rectangular (Simple) Surface Coordinate System
 Surface Geometry,UpperLeftCorner,Counterclockwise,RelativeCoordinateSystem,RelativeCoordinateSystem,RelativeToZoneOrigin
! <Surface Heat Transfer Algorithm>, Value {CTF - ConductionTransferFunction | EMPD - MoisturePenetrationDepthConductionTransferFunction | CondFD - ConductionFiniteDifference | HAMT - CombinedHeatAndMoistureFiniteElement} - Description,Inside Surface Max Temperature Limit{C}, Surface Convection Coefficient Lower Limit {W/m2-K}, Surface Convection Coefficient Upper Limit {W/m2-K}
Surface Heat Transfer Algorithm, CTF - ConductionTransferFunction,200,0.10,1000.0
! <Shading Summary>, Number of Fixed Detached Shades, Number of Building Detached Shades, Number of Attached Shades
 Shading Summary,0,0,0
! <Zone Summary>, Number of Zones, Number of Zone Surfaces, Number of SubSurfaces
 Zone Summary,18,155,12
! <Zone Information>,Zone Name,North Axis {deg},Origin X-Coordinate {m},Origin Y-Coordinate {m},Origin Z-Coordinate {m},Centroid X-Coordinate {m},Centroid Y-Coordinate {m},Centroid Z-Coordinate {m},Type,Zone Multiplier,Zone List Multiplier,Minimum X {m},Maximum X {m},Minimum Y {m},Maximum Y {m},Minimum Z {m},Maximum Z {m},Ceiling Height {m},Volume {m3},Zone Inside Convection Algorithm {Simple-Detailed-CeilingDiffuser-TrombeWall},Zone Outside Convection Algorithm {Simple-Detailed-Tarp-MoWitt-DOE-2-BLAST}, Floor Area {m2},Exterior Gross Wall Area {m2},Exterior Net Wall Area {m2},Exterior Window Area {m2}, Number of Surfaces, Number of SubSurfaces, Number of Shading SubSurfaces,  Part of Total Building Area
 Zone Information, CORE_BOTTOM ZN,0.0,0.00,0.00,0.00,24.96,16.64,1.37,1,1,1,4.57,45.34,4.57,28.70,0.00,2.74,2.74,2698.04,TARP,TARP,983.54,0.00,0.00,0.00,6,0,0,Yes
 Zone Information, CORE_MID ZN,0.0,0.00,0.00,0.00,24.96,16.64,5.33,1,1,1,4.57,45.34,4.57,28.70,3.96,6.71,2.74,2698.04,TARP,TARP,983.54,0.00,0.00,0.00,6,0,0,Yes
 Zone Information, CORE_TOP ZN,0.0,0.00,0.00,0.00,24.96,16.64,9.30,1,1,1,4.57,45.34,4.57,28.70,7.92,10.67,2.74,2698.04,TARP,TARP,983.54,0.00,0.00,0.00,6,0,0,Yes
 Zone Information, FIRSTFLOOR_PLENUM ZN,0.0,0.00,0.00,0.00,24.96,16.64,3.35,1,1,1,0.00,49.91,0.00,33.27,2.74,3.96,1.22,2024.76,TARP,TARP,1660.73,202.84,202.84,0.00,14,0,0,No
 Zone Information, MIDFLOOR_PLENUM ZN,0.0,0.00,0.00,0.00,24.96,16.64,7.32,1,1,1,0.00,49.91,0.00,33.27,6.71,7.92,1.22,2024.76,TARP,TARP,1660.73,202.84,202.84,0.00,14,0,0,No
 Zone Information, PERIMETER_BOT_ZN_1 ZN,0.0,0.00,0.00,0.00,24.96,2.16,1.37,1,1,1,0.00,49.91,0.00,4.57,0.00,2.74,2.74,568.77,TARP,TARP,207.34,136.92,71.63,65.28,6,1,0,Yes
 Zone Information, PERIMETER_BOT_ZN_2 ZN,0.0,0.00,0.00,0.00,47.82,16.64,1.37,1,1,1,45.34,49.91,0.00,33.27,0.00,2.74,2.74,360.08,TARP,TARP,131.26,91.28,47.75,43.52,6,1,0,Yes
 Zone Information, PERIMETER_BOT_ZN_3 ZN,0.0,0.00,0.00,0.00,24.96,31.11,1.37,1,1,1,0.00,49.91,28.70,33.27,0.00,2.74,2.74,568.77,TARP,TARP,207.34,136.92,71.63,65.28,6,1,0,Yes
 Zone Information, PERIMETER_BOT_ZN_4 ZN,0.0,0.00,0.00,0.00,2.09,16.64,1.37,1,1,1,0.00,4.57,0.00,33.27,0.00,2.74,2.74,360.05,TARP,TARP,131.25,91.28,47.75,43.52,6,1,0,Yes
 Zone Information, PERIMETER_MID_ZN_1 ZN,0.0,0.00,0.00,0.00,24.96,2.16,5.33,1,1,1,0.00,49.91,0.00,4.57,3.96,6.71,2.74,568.77,TARP,TARP,207.34,136.92,71.63,65.28,6,1,0,Yes
 Zone Information, PERIMETER_MID_ZN_2 ZN,0.0,0.00,0.00,0.00,47.82,16.64,5.33,1,1,1,45.34,49.91,0.00,33.27,3.96,6.71,2.74,360.08,TARP,TARP,131.26,91.28,47.75,43.52,6,1,0,Yes
 Zone Information, PERIMETER_MID_ZN_3 ZN,0.0,0.00,0.00,0.00,24.96,31.11,5.33,1,1,1,0.00,49.91,28.70,33.27,3.96,6.71,2.74,568.77,TARP,TARP,207.34,136.92,71.63,65.28,6,1,0,Yes
 Zone Information, PERIMETER_MID_ZN_4 ZN,0.0,0.00,0.00,0.00,2.09,16.64,5.33,1,1,1,0.00,4.57,0.00,33.27,3.96,6.71,2.74,360.05,TARP,TARP,131.25,91.28,47.75,43.52,6,1,0,Yes
 Zone Information, PERIMETER_TOP_ZN_1 ZN,0.0,0.00,0.00,0.00,24.96,2.16,9.30,1,1,1,0.00,49.91,0.00,4.57,7.92,10.67,2.74,568.77,TARP,TARP,207.34,136.92,71.63,65.28,6,1,0,Yes
 Zone Information, PERIMETER_TOP_ZN_2 ZN,0.0,0.00,0.00,0.00,47.82,16.64,9.30,1,1,1,45.34,49.91,0.00,33.27,7.92,10.67,2.74,360.08,TARP,TARP,131.26,91.28,47.75,43.52,6,1,0,Yes
 Zone Information, PERIMETER_TOP_ZN_3 ZN,0.0,0.00,0.00,0.00,24.96,31.11,9.30,1,1,1,0.00,49.91,28.70,33.27,7.92,10.67,2.74,568.77,TARP,TARP,207.34,136.92,71.63,65.28,6,1,0,Yes
 Zone Information, PERIMETER_TOP_ZN_4 ZN,0.0,0.00,0.00,0.00,2.09,16.64,9.30,1,1,1,0.00,4.57,0.00,33.27,7.92,10.67,2.74,360.05,TARP,TARP,131.25,91.28,47.75,43.52,6,1,0,Yes
 Zone Information, TOPFLOOR_PLENUM ZN,0.0,0.00,0.00,0.00,24.96,16.64,11.28,1,1,1,0.00,49.91,0.00,33.27,10.67,11.89,1.22,2024.76,TARP,TARP,1660.73,202.84,202.84,0.00,10,0,0,No
! <Zone Internal Gains Nominal>,Zone Name, Floor Area {m2},# Occupants,Area per Occupant {m2/person},Occupant per Area {person/m2},Interior Lighting {W/m2},Electric Load {W/m2},Gas Load {W/m2},Other Load {W/m2},Hot Water Eq {W/m2},Steam Equipment {W/m2},Sum Loads per Area {W/m2},Outdoor Controlled Baseboard Heat
 Zone Internal Gains Nominal, CORE_BOTTOM ZN,983.54,52.9,18.581,5.382E-002,8.826,40.849,0.000,0.000,0.000,0.000,49.676,No
 Zone Internal Gains Nominal, CORE_MID ZN,983.54,52.9,18.581,5.382E-002,8.826,8.073,0.000,0.000,0.000,0.000,16.899,No
 Zone Internal Gains Nominal, CORE_TOP ZN,983.54,52.9,18.581,5.382E-002,8.826,8.073,0.000,0.000,0.000,0.000,16.899,No
 Zone Internal Gains Nominal, FIRSTFLOOR_PLENUM ZN,1660.73,0.0,N/A,0.000,0.000,0.000,0.000,0.000,0.000,0.000,0.000,No
 Zone Internal Gains Nominal, MIDFLOOR_PLENUM ZN,1660.73,0.0,N/A,0.000,0.000,0.000,0.000,0.000,0.000,0.000,0.000,No
 Zone Internal Gains Nominal, PERIMETER_BOT_ZN_1 ZN,207.34,11.2,18.581,5.382E-002,8.826,8.073,0.000,0.000,0.000,0.000,16.899,No
 Zone Internal Gains Nominal, PERIMETER_BOT_ZN_2 ZN,131.26,7.1,18.581,5.382E-002,8.826,8.073,0.000,0.000,0.000,0.000,16.899,No
 Zone Internal Gains Nominal, PERIMETER_BOT_ZN_3 ZN,207.34,11.2,18.581,5.382E-002,8.826,8.073,0.000,0.000,0.000,0.000,16.899,No
 Zone Internal Gains Nominal, PERIMETER_BOT_ZN_4 ZN,131.25,7.1,18.581,5.382E-002,8.826,8.073,0.000,0.000,0.000,0.000,16.899,No
 Zone Internal Gains Nominal, PERIMETER_MID_ZN_1 ZN,207.34,11.2,18.581,5.382E-002,8.826,8.073,0.000,0.000,0.000,0.000,16.899,No
 Zone Internal Gains Nominal, PERIMETER_MID_ZN_2 ZN,131.26,7.1,18.581,5.382E-002,8.826,8.073,0.000,0.000,0.000,0.000,16.899,No
 Zone Internal Gains Nominal, PERIMETER_MID_ZN_3 ZN,207.34,11.2,18.581,5.382E-002,8.826,8.073,0.000,0.000,0.000,0.000,16.899,No
 Zone Internal Gains Nominal, PERIMETER_MID_ZN_4 ZN,131.25,7.1,18.581,5.382E-002,8.826,8.073,0.000,0.000,0.000,0.000,16.899,No
 Zone Internal Gains Nominal, PERIMETER_TOP_ZN_1 ZN,207.34,11.2,18.581,5.382E-002,8.826,8.073,0.000,0.000,0.000,0.000,16.899,No
 Zone Internal Gains Nominal, PERIMETER_TOP_ZN_2 ZN,131.26,7.1,18.581,5.382E-002,8.826,8.073,0.000,0.000,0.000,0.000,16.899,No
 Zone Internal Gains Nominal, PERIMETER_TOP_ZN_3 ZN,207.34,11.2,18.581,5.382E-002,8.826,8.073,0.000,0.000,0.000,0.000,16.899,No
 Zone Internal Gains Nominal, PERIMETER_TOP_ZN_4 ZN,131.25,7.1,18.581,5.382E-002,8.826,8.073,0.000,0.000,0.000,0.000,16.899,No
 Zone Internal Gains Nominal, TOPFLOOR_PLENUM ZN,1660.73,0.0,N/A,0.000,0.000,0.000,0.000,0.000,0.000,0.000,0.000,No
! <People Internal Gains Nominal>,Name,Schedule Name,Zone Name,Zone Floor Area {m2},# Zone Occupants,Number of People {},People/Floor Area {person/m2},Floor Area per person {m2/person},Fraction Radiant,Fraction Convected,Sensible Fraction Calculation,Activity level,ASHRAE 55 Warnings,Carbon Dioxide Generation Rate,Nominal Minimum Number of People,Nominal Maximum Number of People
 People Internal Gains Nominal, PERIMETER_MID_ZN_4 OFFICE WHOLEBUILDING - MD OFFICE PEOPLE,OFFICEMEDIUM BLDG_OCC_SCH,PERIMETER_MID_ZN_4 ZN,131.25,7.1,7.1,5.382E-002,18.581,0.300,0.700,AutoCalculate,OFFICEMEDIUM ACTIVITY_SCH,No,3.8200E-008,0,7
 People Internal Gains Nominal, PERIMETER_TOP_ZN_3 OFFICE WHOLEBUILDING - MD OFFICE PEOPLE,OFFICEMEDIUM BLDG_OCC_SCH,PERIMETER_TOP_ZN_3 ZN,207.34,11.2,11.2,5.382E-002,18.581,0.300,0.700,AutoCalculate,OFFICEMEDIUM ACTIVITY_SCH,No,3.8200E-008,0,11
 People Internal Gains Nominal, PERIMETER_BOT_ZN_2 OFFICE WHOLEBUILDING - MD OFFICE PEOPLE,OFFICEMEDIUM BLDG_OCC_SCH,PERIMETER_BOT_ZN_2 ZN,131.26,7.1,7.1,5.382E-002,18.581,0.300,0.700,AutoCalculate,OFFICEMEDIUM ACTIVITY_SCH,No,3.8200E-008,0,7
 People Internal Gains Nominal, PERIMETER_BOT_ZN_3 OFFICE WHOLEBUILDING - MD OFFICE PEOPLE,OFFICEMEDIUM BLDG_OCC_SCH,PERIMETER_BOT_ZN_3 ZN,207.34,11.2,11.2,5.382E-002,18.581,0.300,0.700,AutoCalculate,OFFICEMEDIUM ACTIVITY_SCH,No,3.8200E-008,0,11
 People Internal Gains Nominal, PERIMETER_MID_ZN_3 OFFICE WHOLEBUILDING - MD OFFICE PEOPLE,OFFICEMEDIUM BLDG_OCC_SCH,PERIMETER_MID_ZN_3 ZN,207.34,11.2,11.2,5.382E-002,18.581,0.300,0.700,AutoCalculate,OFFICEMEDIUM ACTIVITY_SCH,No,3.8200E-008,0,11
 People Internal Gains Nominal, CORE_TOP OFFICE WHOLEBUILDING - MD OFFICE PEOPLE,OFFICEMEDIUM BLDG_OCC_SCH,CORE_TOP ZN,983.54,52.9,52.9,5.382E-002,18.581,0.300,0.700,AutoCalculate,OFFICEMEDIUM ACTIVITY_SCH,No,3.8200E-008,0,53
 People Internal Gains Nominal, PERIMETER_MID_ZN_2 OFFICE WHOLEBUILDING - MD OFFICE PEOPLE,OFFICEMEDIUM BLDG_OCC_SCH,PERIMETER_MID_ZN_2 ZN,131.26,7.1,7.1,5.382E-002,18.581,0.300,0.700,AutoCalculate,OFFICEMEDIUM ACTIVITY_SCH,No,3.8200E-008,0,7
 People Internal Gains Nominal, PERIMETER_TOP_ZN_4 OFFICE WHOLEBUILDING - MD OFFICE PEOPLE,OFFICEMEDIUM BLDG_OCC_SCH,PERIMETER_TOP_ZN_4 ZN,131.25,7.1,7.1,5.382E-002,18.581,0.300,0.700,AutoCalculate,OFFICEMEDIUM ACTIVITY_SCH,No,3.8200E-008,0,7
 People Internal Gains Nominal, PERIMETER_MID_ZN_1 OFFICE WHOLEBUILDING - MD OFFICE PEOPLE,OFFICEMEDIUM BLDG_OCC_SCH,PERIMETER_MID_ZN_1 ZN,207.34,11.2,11.2,5.382E-002,18.581,0.300,0.700,AutoCalculate,OFFICEMEDIUM ACTIVITY_SCH,No,3.8200E-008,0,11
 People Internal Gains Nominal, CORE_BOTTOM OFFICE WHOLEBUILDING - MD OFFICE PEOPLE,OFFICEMEDIUM BLDG_OCC_SCH,CORE_BOTTOM ZN,983.54,52.9,52.9,5.382E-002,18.581,0.300,0.700,AutoCalculate,OFFICEMEDIUM ACTIVITY_SCH,No,3.8200E-008,0,53
 People Internal Gains Nominal, PERIMETER_BOT_ZN_1 OFFICE WHOLEBUILDING - MD OFFICE PEOPLE,OFFICEMEDIUM BLDG_OCC_SCH,PERIMETER_BOT_ZN_1 ZN,207.34,11.2,11.2,5.382E-002,18.581,0.300,0.700,AutoCalculate,OFFICEMEDIUM ACTIVITY_SCH,No,3.8200E-008,0,11
 People Internal Gains Nominal, PERIMETER_BOT_ZN_4 OFFICE WHOLEBUILDING - MD OFFICE PEOPLE,OFFICEMEDIUM BLDG_OCC_SCH,PERIMETER_BOT_ZN_4 ZN,131.25,7.1,7.1,5.382E-002,18.581,0.300,0.700,AutoCalculate,OFFICEMEDIUM ACTIVITY_SCH,No,3.8200E-008,0,7
 People Internal Gains Nominal, CORE_MID OFFICE WHOLEBUILDING - MD OFFICE PEOPLE,OFFICEMEDIUM BLDG_OCC_SCH,CORE_MID ZN,983.54,52.9,52.9,5.382E-002,18.581,0.300,0.700,AutoCalculate,OFFICEMEDIUM ACTIVITY_SCH,No,3.8200E-008,0,53
 People Internal Gains Nominal, PERIMETER_TOP_ZN_2 OFFICE WHOLEBUILDING - MD OFFICE PEOPLE,OFFICEMEDIUM BLDG_OCC_SCH,PERIMETER_TOP_ZN_2 ZN,131.26,7.1,7.1,5.382E-002,18.581,0.300,0.700,AutoCalculate,OFFICEMEDIUM ACTIVITY_SCH,No,3.8200E-008,0,7
 People Internal Gains Nominal, PERIMETER_TOP_ZN_1 OFFICE WHOLEBUILDING - MD OFFICE PEOPLE,OFFICEMEDIUM BLDG_OCC_SCH,PERIMETER_TOP_ZN_1 ZN,207.34,11.2,11.2,5.382E-002,18.581,0.300,0.700,AutoCalculate,OFFICEMEDIUM ACTIVITY_SCH,No,3.8200E-008,0,11
! <Lights Internal Gains Nominal>,Name,Schedule Name,Zone Name,Zone Floor Area {m2},# Zone Occupants,Lighting Level {W},Lights/Floor Area {W/m2},Lights per person {W/person},Fraction Return Air,Fraction Radiant,Fraction Short Wave,Fraction Convected,Fraction Replaceable,End-Use Category,Nominal Minimum Lighting Level {W},Nominal Maximum Lighting Level {W}
 Lights Internal Gains Nominal, PERIMETER_MID_ZN_4 OFFICE WHOLEBUILDING - MD OFFICE LIGHTS,OFFICEMEDIUM BLDG_LIGHT_SCH_2013,PERIMETER_MID_ZN_4 ZN,131.25,7.1,1158.497,8.826,164.000,0.000,0.700,0.200,0.100,1.000,General,0.000,1158.497
 Lights Internal Gains Nominal, PERIMETER_TOP_ZN_3 OFFICE WHOLEBUILDING - MD OFFICE LIGHTS,OFFICEMEDIUM BLDG_LIGHT_SCH_2013,PERIMETER_TOP_ZN_3 ZN,207.34,11.2,1830.051,8.826,164.000,0.000,0.700,0.200,0.100,1.000,General,0.000,1830.051
 Lights Internal Gains Nominal, PERIMETER_BOT_ZN_2 OFFICE WHOLEBUILDING - MD OFFICE LIGHTS,OFFICEMEDIUM BLDG_LIGHT_SCH_2013,PERIMETER_BOT_ZN_2 ZN,131.26,7.1,1158.573,8.826,164.000,0.000,0.700,0.200,0.100,1.000,General,0.000,1158.573
 Lights Internal Gains Nominal, PERIMETER_BOT_ZN_3 OFFICE WHOLEBUILDING - MD OFFICE LIGHTS,OFFICEMEDIUM BLDG_LIGHT_SCH_2013,PERIMETER_BOT_ZN_3 ZN,207.34,11.2,1830.051,8.826,164.000,0.000,0.700,0.200,0.100,1.000,General,0.000,1830.051
 Lights Internal Gains Nominal, PERIMETER_MID_ZN_3 OFFICE WHOLEBUILDING - MD OFFICE LIGHTS,OFFICEMEDIUM BLDG_LIGHT_SCH_2013,PERIMETER_MID_ZN_3 ZN,207.34,11.2,1830.051,8.826,164.000,0.000,0.700,0.200,0.100,1.000,General,0.000,1830.051
 Lights Internal Gains Nominal, CORE_TOP OFFICE WHOLEBUILDING - MD OFFICE LIGHTS,OFFICEMEDIUM BLDG_LIGHT_SCH_2013,CORE_TOP ZN,983.54,52.9,8681.094,8.826,164.000,0.000,0.700,0.200,0.100,1.000,General,0.000,8681.094
 Lights Internal Gains Nominal, PERIMETER_MID_ZN_2 OFFICE WHOLEBUILDING - MD OFFICE LIGHTS,OFFICEMEDIUM BLDG_LIGHT_SCH_2013,PERIMETER_MID_ZN_2 ZN,131.26,7.1,1158.573,8.826,164.000,0.000,0.700,0.200,0.100,1.000,General,0.000,1158.573
 Lights Internal Gains Nominal, PERIMETER_TOP_ZN_4 OFFICE WHOLEBUILDING - MD OFFICE LIGHTS,OFFICEMEDIUM BLDG_LIGHT_SCH_2013,PERIMETER_TOP_ZN_4 ZN,131.25,7.1,1158.497,8.826,164.000,0.000,0.700,0.200,0.100,1.000,General,0.000,1158.497
 Lights Internal Gains Nominal, PERIMETER_MID_ZN_1 OFFICE WHOLEBUILDING - MD OFFICE LIGHTS,OFFICEMEDIUM BLDG_LIGHT_SCH_2013,PERIMETER_MID_ZN_1 ZN,207.34,11.2,1830.051,8.826,164.000,0.000,0.700,0.200,0.100,1.000,General,0.000,1830.051
 Lights Internal Gains Nominal, CORE_BOTTOM OFFICE WHOLEBUILDING - MD OFFICE LIGHTS,OFFICEMEDIUM BLDG_LIGHT_SCH_2013,CORE_BOTTOM ZN,983.54,52.9,8681.094,8.826,164.000,0.000,0.700,0.200,0.100,1.000,General,0.000,8681.094
 Lights Internal Gains Nominal, PERIMETER_BOT_ZN_1 OFFICE WHOLEBUILDING - MD OFFICE LIGHTS,OFFICEMEDIUM BLDG_LIGHT_SCH_2013,PERIMETER_BOT_ZN_1 ZN,207.34,11.2,1830.051,8.826,164.000,0.000,0.700,0.200,0.100,1.000,General,0.000,1830.051
 Lights Internal Gains Nominal, PERIMETER_BOT_ZN_4 OFFICE WHOLEBUILDING - MD OFFICE LIGHTS,OFFICEMEDIUM BLDG_LIGHT_SCH_2013,PERIMETER_BOT_ZN_4 ZN,131.25,7.1,1158.497,8.826,164.000,0.000,0.700,0.200,0.100,1.000,General,0.000,1158.497
 Lights Internal Gains Nominal, CORE_MID OFFICE WHOLEBUILDING - MD OFFICE LIGHTS,OFFICEMEDIUM BLDG_LIGHT_SCH_2013,CORE_MID ZN,983.54,52.9,8681.094,8.826,164.000,0.000,0.700,0.200,0.100,1.000,General,0.000,8681.094
 Lights Internal Gains Nominal, PERIMETER_TOP_ZN_2 OFFICE WHOLEBUILDING - MD OFFICE LIGHTS,OFFICEMEDIUM BLDG_LIGHT_SCH_2013,PERIMETER_TOP_ZN_2 ZN,131.26,7.1,1158.573,8.826,164.000,0.000,0.700,0.200,0.100,1.000,General,0.000,1158.573
 Lights Internal Gains Nominal, PERIMETER_TOP_ZN_1 OFFICE WHOLEBUILDING - MD OFFICE LIGHTS,OFFICEMEDIUM BLDG_LIGHT_SCH_2013,PERIMETER_TOP_ZN_1 ZN,207.34,11.2,1830.051,8.826,164.000,0.000,0.700,0.200,0.100,1.000,General,0.000,1830.051
! <ElectricEquipment Internal Gains Nominal>,Name,Schedule Name,Zone Name,Zone Floor Area {m2},# Zone Occupants,Equipment Level {W},Equipment/Floor Area {W/m2},Equipment per person {W/person},Fraction Latent,Fraction Radiant,Fraction Lost,Fraction Convected,End-Use SubCategory,Nominal Minimum Equipment Level {W},Nominal Maximum Equipment Level {W}
 ElectricEquipment Internal Gains Nominal, PERIMETER_MID_ZN_4 OFFICE WHOLEBUILDING - MD OFFICE ELEC EQUIP,OFFICEMEDIUM BLDG_EQUIP_SCH_2013,PERIMETER_MID_ZN_4 ZN,131.25,7.1,1059.601,8.073,150.000,0.000,0.500,0.000,0.500,General,0.000,1059.601
 ElectricEquipment Internal Gains Nominal, PERIMETER_TOP_ZN_3 OFFICE WHOLEBUILDING - MD OFFICE ELEC EQUIP,OFFICEMEDIUM BLDG_EQUIP_SCH_2013,PERIMETER_TOP_ZN_3 ZN,207.34,11.2,1673.827,8.073,150.000,0.000,0.500,0.000,0.500,General,0.000,1673.827
 ElectricEquipment Internal Gains Nominal, PERIMETER_BOT_ZN_2 OFFICE WHOLEBUILDING - MD OFFICE ELEC EQUIP,OFFICEMEDIUM BLDG_EQUIP_SCH_2013,PERIMETER_BOT_ZN_2 ZN,131.26,7.1,1059.671,8.073,150.000,0.000,0.500,0.000,0.500,General,0.000,1059.671
 ElectricEquipment Internal Gains Nominal, PERIMETER_BOT_ZN_3 OFFICE WHOLEBUILDING - MD OFFICE ELEC EQUIP,OFFICEMEDIUM BLDG_EQUIP_SCH_2013,PERIMETER_BOT_ZN_3 ZN,207.34,11.2,1673.827,8.073,150.000,0.000,0.500,0.000,0.500,General,0.000,1673.827
 ElectricEquipment Internal Gains Nominal, PERIMETER_MID_ZN_3 OFFICE WHOLEBUILDING - MD OFFICE ELEC EQUIP,OFFICEMEDIUM BLDG_EQUIP_SCH_2013,PERIMETER_MID_ZN_3 ZN,207.34,11.2,1673.827,8.073,150.000,0.000,0.500,0.000,0.500,General,0.000,1673.827
 ElectricEquipment Internal Gains Nominal, CORE_TOP OFFICE WHOLEBUILDING - MD OFFICE ELEC EQUIP,OFFICEMEDIUM BLDG_EQUIP_SCH_2013,CORE_TOP ZN,983.54,52.9,7940.025,8.073,150.000,0.000,0.500,0.000,0.500,General,0.000,7940.025
 ElectricEquipment Internal Gains Nominal, PERIMETER_MID_ZN_2 OFFICE WHOLEBUILDING - MD OFFICE ELEC EQUIP,OFFICEMEDIUM BLDG_EQUIP_SCH_2013,PERIMETER_MID_ZN_2 ZN,131.26,7.1,1059.671,8.073,150.000,0.000,0.500,0.000,0.500,General,0.000,1059.671
 ElectricEquipment Internal Gains Nominal, PERIMETER_TOP_ZN_4 OFFICE WHOLEBUILDING - MD OFFICE ELEC EQUIP,OFFICEMEDIUM BLDG_EQUIP_SCH_2013,PERIMETER_TOP_ZN_4 ZN,131.25,7.1,1059.601,8.073,150.000,0.000,0.500,0.000,0.500,General,0.000,1059.601
 ElectricEquipment Internal Gains Nominal, PERIMETER_MID_ZN_1 OFFICE WHOLEBUILDING - MD OFFICE ELEC EQUIP,OFFICEMEDIUM BLDG_EQUIP_SCH_2013,PERIMETER_MID_ZN_1 ZN,207.34,11.2,1673.827,8.073,150.000,0.000,0.500,0.000,0.500,General,0.000,1673.827
 ElectricEquipment Internal Gains Nominal, CORE_BOTTOM OFFICE WHOLEBUILDING - MD OFFICE ELEC EQUIP,OFFICEMEDIUM BLDG_EQUIP_SCH_2013,CORE_BOTTOM ZN,983.54,52.9,7940.025,8.073,150.000,0.000,0.500,0.000,0.500,General,0.000,7940.025
 ElectricEquipment Internal Gains Nominal, PERIMETER_BOT_ZN_1 OFFICE WHOLEBUILDING - MD OFFICE ELEC EQUIP,OFFICEMEDIUM BLDG_EQUIP_SCH_2013,PERIMETER_BOT_ZN_1 ZN,207.34,11.2,1673.827,8.073,150.000,0.000,0.500,0.000,0.500,General,0.000,1673.827
 ElectricEquipment Internal Gains Nominal, PERIMETER_BOT_ZN_4 OFFICE WHOLEBUILDING - MD OFFICE ELEC EQUIP,OFFICEMEDIUM BLDG_EQUIP_SCH_2013,PERIMETER_BOT_ZN_4 ZN,131.25,7.1,1059.601,8.073,150.000,0.000,0.500,0.000,0.500,General,0.000,1059.601
 ElectricEquipment Internal Gains Nominal, CORE_MID OFFICE WHOLEBUILDING - MD OFFICE ELEC EQUIP,OFFICEMEDIUM BLDG_EQUIP_SCH_2013,CORE_MID ZN,983.54,52.9,7940.025,8.073,150.000,0.000,0.500,0.000,0.500,General,0.000,7940.025
 ElectricEquipment Internal Gains Nominal, PERIMETER_TOP_ZN_2 OFFICE WHOLEBUILDING - MD OFFICE ELEC EQUIP,OFFICEMEDIUM BLDG_EQUIP_SCH_2013,PERIMETER_TOP_ZN_2 ZN,131.26,7.1,1059.671,8.073,150.000,0.000,0.500,0.000,0.500,General,0.000,1059.671
 ElectricEquipment Internal Gains Nominal, PERIMETER_TOP_ZN_1 OFFICE WHOLEBUILDING - MD OFFICE ELEC EQUIP,OFFICEMEDIUM BLDG_EQUIP_SCH_2013,PERIMETER_TOP_ZN_1 ZN,207.34,11.2,1673.827,8.073,150.000,0.000,0.500,0.000,0.500,General,0.000,1673.827
 ElectricEquipment Internal Gains Nominal, 2 ELEVATOR FANS,OFFICEMEDIUM ELEV_LIGHT_FAN_SCH_ADD_DF,CORE_BOTTOM ZN,983.54,52.9,61.915,6.295E-002,1.170,0.000,0.500,0.000,0.500,General,0.000,42.721
 ElectricEquipment Internal Gains Nominal, 2 ELEVATOR LIFT MOTORS,OFFICEMEDIUM BLDG_ELEVATORS,CORE_BOTTOM ZN,983.54,52.9,32110.000,32.647,606.610,0.000,0.500,0.000,0.500,General,0.000,22155.900
 ElectricEquipment Internal Gains Nominal, 2 ELEVATOR LIGHTS,OFFICEMEDIUM ELEV_LIGHT_FAN_SCH_ADD_DF,CORE_BOTTOM ZN,983.54,52.9,64.697,6.578E-002,1.222,0.000,0.500,0.000,0.500,General,0.000,44.641
! <Shadowing/Sun Position Calculations Annual Simulations>, Shading Calculation Method, Shading Calculation Update Frequency Method, Shading Calculation Update Frequency {days}, Maximum Figures in Shadow Overlap Calculations {}, Polygon Clipping Algorithm, Pixel Counting Resolution, Sky Diffuse Modeling Algorithm, Output External Shading Calculation Results, Disable Self-Shading Within Shading Zone Groups, Disable Self-Shading From Shading Zone Groups to Other Zones
Shadowing/Sun Position Calculations Annual Simulations,PolygonClipping,Periodic,7,15000,SutherlandHodgman,512,SimpleSkyDiffuseModeling,No,No,No
! <Enclosure/Window Adjacency Daylighting Counts>, Enclosure Name, Number of Exterior Windows, Number of Exterior Windows in Adjacent Enclosures
Enclosure/Window Adjacency Daylighting Counts, PERIMETER_BOT_ZN_1,1,0
Enclosure/Window Adjacency Daylighting Counts, PERIMETER_BOT_ZN_2,1,0
Enclosure/Window Adjacency Daylighting Counts, PERIMETER_BOT_ZN_3,1,0
Enclosure/Window Adjacency Daylighting Counts, PERIMETER_BOT_ZN_4,1,0
Enclosure/Window Adjacency Daylighting Counts, PERIMETER_MID_ZN_1,1,0
Enclosure/Window Adjacency Daylighting Counts, PERIMETER_MID_ZN_2,1,0
Enclosure/Window Adjacency Daylighting Counts, PERIMETER_MID_ZN_3,1,0
Enclosure/Window Adjacency Daylighting Counts, PERIMETER_MID_ZN_4,1,0
Enclosure/Window Adjacency Daylighting Counts, PERIMETER_TOP_ZN_1,1,0
Enclosure/Window Adjacency Daylighting Counts, PERIMETER_TOP_ZN_2,1,0
Enclosure/Window Adjacency Daylighting Counts, PERIMETER_TOP_ZN_3,1,0
Enclosure/Window Adjacency Daylighting Counts, PERIMETER_TOP_ZN_4,1,0
! <Enclosure/Window Adjacency Daylighting Matrix>, Enclosure Name, Number of Adjacent Enclosures with Windows,Adjacent Enclosure Names - 1st 100 (max)
Enclosure/Window Adjacency Daylighting Matrix, PERIMETER_BOT_ZN_1,0
Enclosure/Window Adjacency Daylighting Matrix, PERIMETER_BOT_ZN_2,0
Enclosure/Window Adjacency Daylighting Matrix, PERIMETER_BOT_ZN_3,0
Enclosure/Window Adjacency Daylighting Matrix, PERIMETER_BOT_ZN_4,0
Enclosure/Window Adjacency Daylighting Matrix, PERIMETER_MID_ZN_1,0
Enclosure/Window Adjacency Daylighting Matrix, PERIMETER_MID_ZN_2,0
Enclosure/Window Adjacency Daylighting Matrix, PERIMETER_MID_ZN_3,0
Enclosure/Window Adjacency Daylighting Matrix, PERIMETER_MID_ZN_4,0
Enclosure/Window Adjacency Daylighting Matrix, PERIMETER_TOP_ZN_1,0
Enclosure/Window Adjacency Daylighting Matrix, PERIMETER_TOP_ZN_2,0
Enclosure/Window Adjacency Daylighting Matrix, PERIMETER_TOP_ZN_3,0
Enclosure/Window Adjacency Daylighting Matrix, PERIMETER_TOP_ZN_4,0
! <Water Heater Information>,Type,Name,Volume {m3},Maximum Capacity {W},Standard Rated Recovery Efficiency, Standard Rated Energy Factor
! <ZoneInfiltration Airflow Stats Nominal>,Name,Schedule Name,Zone Name, Zone Floor Area {m2}, # Zone Occupants,Design Volume Flow Rate {m3/s},Volume Flow Rate/Floor Area {m3/s-m2},Volume Flow Rate/Exterior Surface Area {m3/s-m2},ACH - Air Changes per Hour,Equation A - Constant Term Coefficient {},Equation B - Temperature Term Coefficient {1/C},Equation C - Velocity Term Coefficient {s/m}, Equation D - Velocity Squared Term Coefficient {s2/m2}
 ZoneInfiltration Airflow Stats Nominal, FIRSTFLOOR_PLENUM INFILTRATION,OFFICEMEDIUM INFIL_SCH_PNNL,FIRSTFLOOR_PLENUM ZN,1660.73,0.0,0.116,6.957E-005,5.696E-004,0.205,0.000,0.000,0.224,0.000
 ZoneInfiltration Airflow Stats Nominal, MIDFLOOR_PLENUM INFILTRATION,OFFICEMEDIUM INFIL_SCH_PNNL,MIDFLOOR_PLENUM ZN,1660.73,0.0,0.116,6.957E-005,5.696E-004,0.205,0.000,0.000,0.224,0.000
 ZoneInfiltration Airflow Stats Nominal, ENTRY DOOR INFILTRATION,OFFICEMEDIUM INFIL_DOOR_OPENING_SCH,PERIMETER_BOT_ZN_1 ZN,207.34,11.2,0.679,3.273E-003,4.957E-003,4.296,1.000,0.000,0.000,0.000
 ZoneInfiltration Airflow Stats Nominal, PERIMETER_BOT_ZN_1 INFILTRATION,OFFICEMEDIUM INFIL_SCH_PNNL,PERIMETER_BOT_ZN_1 ZN,207.34,11.2,7.798E-002,3.761E-004,5.696E-004,0.494,0.000,0.000,0.224,0.000
 ZoneInfiltration Airflow Stats Nominal, PERIMETER_BOT_ZN_2 INFILTRATION,OFFICEMEDIUM INFIL_SCH_PNNL,PERIMETER_BOT_ZN_2 ZN,131.26,7.1,5.199E-002,3.961E-004,5.696E-004,0.520,0.000,0.000,0.224,0.000
 ZoneInfiltration Airflow Stats Nominal, PERIMETER_BOT_ZN_3 INFILTRATION,OFFICEMEDIUM INFIL_SCH_PNNL,PERIMETER_BOT_ZN_3 ZN,207.34,11.2,7.798E-002,3.761E-004,5.696E-004,0.494,0.000,0.000,0.224,0.000
 ZoneInfiltration Airflow Stats Nominal, PERIMETER_BOT_ZN_4 INFILTRATION,OFFICEMEDIUM INFIL_SCH_PNNL,PERIMETER_BOT_ZN_4 ZN,131.25,7.1,5.199E-002,3.961E-004,5.696E-004,0.520,0.000,0.000,0.224,0.000
 ZoneInfiltration Airflow Stats Nominal, PERIMETER_MID_ZN_1 INFILTRATION,OFFICEMEDIUM INFIL_SCH_PNNL,PERIMETER_MID_ZN_1 ZN,207.34,11.2,7.798E-002,3.761E-004,5.696E-004,0.494,0.000,0.000,0.224,0.000
 ZoneInfiltration Airflow Stats Nominal, PERIMETER_MID_ZN_2 INFILTRATION,OFFICEMEDIUM INFIL_SCH_PNNL,PERIMETER_MID_ZN_2 ZN,131.26,7.1,5.199E-002,3.961E-004,5.696E-004,0.520,0.000,0.000,0.224,0.000
 ZoneInfiltration Airflow Stats Nominal, PERIMETER_MID_ZN_3 INFILTRATION,OFFICEMEDIUM INFIL_SCH_PNNL,PERIMETER_MID_ZN_3 ZN,207.34,11.2,7.798E-002,3.761E-004,5.696E-004,0.494,0.000,0.000,0.224,0.000
 ZoneInfiltration Airflow Stats Nominal, PERIMETER_MID_ZN_4 INFILTRATION,OFFICEMEDIUM INFIL_SCH_PNNL,PERIMETER_MID_ZN_4 ZN,131.25,7.1,5.199E-002,3.961E-004,5.696E-004,0.520,0.000,0.000,0.224,0.000
 ZoneInfiltration Airflow Stats Nominal, PERIMETER_TOP_ZN_1 INFILTRATION,OFFICEMEDIUM INFIL_SCH_PNNL,PERIMETER_TOP_ZN_1 ZN,207.34,11.2,7.798E-002,3.761E-004,5.696E-004,0.494,0.000,0.000,0.224,0.000
 ZoneInfiltration Airflow Stats Nominal, PERIMETER_TOP_ZN_2 INFILTRATION,OFFICEMEDIUM INFIL_SCH_PNNL,PERIMETER_TOP_ZN_2 ZN,131.26,7.1,5.199E-002,3.961E-004,5.696E-004,0.520,0.000,0.000,0.224,0.000
 ZoneInfiltration Airflow Stats Nominal, PERIMETER_TOP_ZN_3 INFILTRATION,OFFICEMEDIUM INFIL_SCH_PNNL,PERIMETER_TOP_ZN_3 ZN,207.34,11.2,7.798E-002,3.761E-004,5.696E-004,0.494,0.000,0.000,0.224,0.000
 ZoneInfiltration Airflow Stats Nominal, PERIMETER_TOP_ZN_4 INFILTRATION,OFFICEMEDIUM INFIL_SCH_PNNL,PERIMETER_TOP_ZN_4 ZN,131.25,7.1,5.199E-002,3.961E-004,5.696E-004,0.520,0.000,0.000,0.224,0.000
 ZoneInfiltration Airflow Stats Nominal, TOPFLOOR_PLENUM INFILTRATION,OFFICEMEDIUM INFIL_SCH_PNNL,TOPFLOOR_PLENUM ZN,1660.73,0.0,0.116,6.957E-005,6.199E-005,0.205,0.000,0.000,0.224,0.000
! <AirFlow Model>, Simple
 AirFlow Model, Simple
! <RoomAir Model>, Zone Name, Mixing/Mundt/UCSDDV/UCSDCV/UCSDUFI/UCSDUFE/User Defined
RoomAir Model,CORE_BOTTOM ZN,Mixing/Well-Stirred
RoomAir Model,CORE_MID ZN,Mixing/Well-Stirred
RoomAir Model,CORE_TOP ZN,Mixing/Well-Stirred
RoomAir Model,FIRSTFLOOR_PLENUM ZN,Mixing/Well-Stirred
RoomAir Model,MIDFLOOR_PLENUM ZN,Mixing/Well-Stirred
RoomAir Model,PERIMETER_BOT_ZN_1 ZN,Mixing/Well-Stirred
RoomAir Model,PERIMETER_BOT_ZN_2 ZN,Mixing/Well-Stirred
RoomAir Model,PERIMETER_BOT_ZN_3 ZN,Mixing/Well-Stirred
RoomAir Model,PERIMETER_BOT_ZN_4 ZN,Mixing/Well-Stirred
RoomAir Model,PERIMETER_MID_ZN_1 ZN,Mixing/Well-Stirred
RoomAir Model,PERIMETER_MID_ZN_2 ZN,Mixing/Well-Stirred
RoomAir Model,PERIMETER_MID_ZN_3 ZN,Mixing/Well-Stirred
RoomAir Model,PERIMETER_MID_ZN_4 ZN,Mixing/Well-Stirred
RoomAir Model,PERIMETER_TOP_ZN_1 ZN,Mixing/Well-Stirred
RoomAir Model,PERIMETER_TOP_ZN_2 ZN,Mixing/Well-Stirred
RoomAir Model,PERIMETER_TOP_ZN_3 ZN,Mixing/Well-Stirred
RoomAir Model,PERIMETER_TOP_ZN_4 ZN,Mixing/Well-Stirred
RoomAir Model,TOPFLOOR_PLENUM ZN,Mixing/Well-Stirred
! <AirflowNetwork Model:Control>, No Multizone or Distribution/Multizone with Distribution/Multizone without Distribution/Multizone with Distribution only during Fan Operation
AirflowNetwork Model:Control,NoMultizoneOrDistribution
! <Zone Volume Capacitance Multiplier>, Sensible Heat Capacity Multiplier, Moisture Capacity Multiplier, Carbon Dioxide Capacity Multiplier, Generic Contaminant Capacity Multiplier
Zone Volume Capacitance Multiplier,   1.000 ,   1.000,   1.000,   1.000
! <Load Timesteps in Zone Design Calculation Averaging Window>, Value
 Load Timesteps in Zone Design Calculation Averaging Window,    6
! <Heating Sizing Factor Information>, Sizing Factor ID, Value
 Heating Sizing Factor Information, Global,   1.0000    
! <Cooling Sizing Factor Information>, Sizing Factor ID, Value
 Cooling Sizing Factor Information, Global,   1.0000    
! <Sky Daylight Factors>, Sky Type, MonthAndDay, Daylighting Control Name, Enclosure Name, Window Name, Reference Point, Daylight Factor
 Sky Daylight Factors,Clear Sky,07/21,PERIMETER_BOT_ZN_1 ZN DAYLIGHTINGCONTROLS,PERIMETER_BOT_ZN_1,PERIMETER_BOT_ZN_1_WALL_SOUTH_WINDOW,PERIMETER_BOT_ZN_1 DAYLT SENSOR 1,6.0924E-002
 Sky Daylight Factors,Clear Sky,07/21,PERIMETER_BOT_ZN_1 ZN DAYLIGHTINGCONTROLS,PERIMETER_BOT_ZN_1,PERIMETER_BOT_ZN_1_WALL_SOUTH_WINDOW,PERIMETER_BOT_ZN_1 DAYLT SENSOR 2,3.2546E-002
 Sky Daylight Factors,Clear Turbid Sky,07/21,PERIMETER_BOT_ZN_1 ZN DAYLIGHTINGCONTROLS,PERIMETER_BOT_ZN_1,PERIMETER_BOT_ZN_1_WALL_SOUTH_WINDOW,PERIMETER_BOT_ZN_1 DAYLT SENSOR 1,5.8834E-002
 Sky Daylight Factors,Clear Turbid Sky,07/21,PERIMETER_BOT_ZN_1 ZN DAYLIGHTINGCONTROLS,PERIMETER_BOT_ZN_1,PERIMETER_BOT_ZN_1_WALL_SOUTH_WINDOW,PERIMETER_BOT_ZN_1 DAYLT SENSOR 2,3.0462E-002
 Sky Daylight Factors,Intermediate Sky,07/21,PERIMETER_BOT_ZN_1 ZN DAYLIGHTINGCONTROLS,PERIMETER_BOT_ZN_1,PERIMETER_BOT_ZN_1_WALL_SOUTH_WINDOW,PERIMETER_BOT_ZN_1 DAYLT SENSOR 1,4.8008E-002
 Sky Daylight Factors,Intermediate Sky,07/21,PERIMETER_BOT_ZN_1 ZN DAYLIGHTINGCONTROLS,PERIMETER_BOT_ZN_1,PERIMETER_BOT_ZN_1_WALL_SOUTH_WINDOW,PERIMETER_BOT_ZN_1 DAYLT SENSOR 2,2.3221E-002
 Sky Daylight Factors,Overcast Sky,07/21,PERIMETER_BOT_ZN_1 ZN DAYLIGHTINGCONTROLS,PERIMETER_BOT_ZN_1,PERIMETER_BOT_ZN_1_WALL_SOUTH_WINDOW,PERIMETER_BOT_ZN_1 DAYLT SENSOR 1,4.2665E-002
 Sky Daylight Factors,Overcast Sky,07/21,PERIMETER_BOT_ZN_1 ZN DAYLIGHTINGCONTROLS,PERIMETER_BOT_ZN_1,PERIMETER_BOT_ZN_1_WALL_SOUTH_WINDOW,PERIMETER_BOT_ZN_1 DAYLT SENSOR 2,2.0593E-002
 Sky Daylight Factors,Clear Sky,07/21,PERIMETER_BOT_ZN_2 ZN DAYLIGHTINGCONTROLS,PERIMETER_BOT_ZN_2,PERIMETER_BOT_ZN_2_WALL_EAST_WINDOW,PERIMETER_BOT_ZN_2 DAYLT SENSOR 1,4.3350E-002
 Sky Daylight Factors,Clear Sky,07/21,PERIMETER_BOT_ZN_2 ZN DAYLIGHTINGCONTROLS,PERIMETER_BOT_ZN_2,PERIMETER_BOT_ZN_2_WALL_EAST_WINDOW,PERIMETER_BOT_ZN_2 DAYLT SENSOR 2,2.5229E-002
 Sky Daylight Factors,Clear Turbid Sky,07/21,PERIMETER_BOT_ZN_2 ZN DAYLIGHTINGCONTROLS,PERIMETER_BOT_ZN_2,PERIMETER_BOT_ZN_2_WALL_EAST_WINDOW,PERIMETER_BOT_ZN_2 DAYLT SENSOR 1,3.8576E-002
 Sky Daylight Factors,Clear Turbid Sky,07/21,PERIMETER_BOT_ZN_2 ZN DAYLIGHTINGCONTROLS,PERIMETER_BOT_ZN_2,PERIMETER_BOT_ZN_2_WALL_EAST_WINDOW,PERIMETER_BOT_ZN_2 DAYLT SENSOR 2,2.2165E-002
 Sky Daylight Factors,Intermediate Sky,07/21,PERIMETER_BOT_ZN_2 ZN DAYLIGHTINGCONTROLS,PERIMETER_BOT_ZN_2,PERIMETER_BOT_ZN_2_WALL_EAST_WINDOW,PERIMETER_BOT_ZN_2 DAYLT SENSOR 1,3.1815E-002
 Sky Daylight Factors,Intermediate Sky,07/21,PERIMETER_BOT_ZN_2 ZN DAYLIGHTINGCONTROLS,PERIMETER_BOT_ZN_2,PERIMETER_BOT_ZN_2_WALL_EAST_WINDOW,PERIMETER_BOT_ZN_2 DAYLT SENSOR 2,1.6728E-002
 Sky Daylight Factors,Overcast Sky,07/21,PERIMETER_BOT_ZN_2 ZN DAYLIGHTINGCONTROLS,PERIMETER_BOT_ZN_2,PERIMETER_BOT_ZN_2_WALL_EAST_WINDOW,PERIMETER_BOT_ZN_2 DAYLT SENSOR 1,4.3064E-002
 Sky Daylight Factors,Overcast Sky,07/21,PERIMETER_BOT_ZN_2 ZN DAYLIGHTINGCONTROLS,PERIMETER_BOT_ZN_2,PERIMETER_BOT_ZN_2_WALL_EAST_WINDOW,PERIMETER_BOT_ZN_2 DAYLT SENSOR 2,2.0859E-002
 Sky Daylight Factors,Clear Sky,07/21,PERIMETER_BOT_ZN_3 ZN DAYLIGHTINGCONTROLS,PERIMETER_BOT_ZN_3,PERIMETER_BOT_ZN_3_WALL_NORTH_WINDOW,PERIMETER_BOT_ZN_3 DAYLT SENSOR 1,3.4630E-002
 Sky Daylight Factors,Clear Sky,07/21,PERIMETER_BOT_ZN_3 ZN DAYLIGHTINGCONTROLS,PERIMETER_BOT_ZN_3,PERIMETER_BOT_ZN_3_WALL_NORTH_WINDOW,PERIMETER_BOT_ZN_3 DAYLT SENSOR 2,2.1590E-002
 Sky Daylight Factors,Clear Turbid Sky,07/21,PERIMETER_BOT_ZN_3 ZN DAYLIGHTINGCONTROLS,PERIMETER_BOT_ZN_3,PERIMETER_BOT_ZN_3_WALL_NORTH_WINDOW,PERIMETER_BOT_ZN_3 DAYLT SENSOR 1,2.8999E-002
 Sky Daylight Factors,Clear Turbid Sky,07/21,PERIMETER_BOT_ZN_3 ZN DAYLIGHTINGCONTROLS,PERIMETER_BOT_ZN_3,PERIMETER_BOT_ZN_3_WALL_NORTH_WINDOW,PERIMETER_BOT_ZN_3 DAYLT SENSOR 2,1.8118E-002
 Sky Daylight Factors,Intermediate Sky,07/21,PERIMETER_BOT_ZN_3 ZN DAYLIGHTINGCONTROLS,PERIMETER_BOT_ZN_3,PERIMETER_BOT_ZN_3_WALL_NORTH_WINDOW,PERIMETER_BOT_ZN_3 DAYLT SENSOR 1,2.1720E-002
 Sky Daylight Factors,Intermediate Sky,07/21,PERIMETER_BOT_ZN_3 ZN DAYLIGHTINGCONTROLS,PERIMETER_BOT_ZN_3,PERIMETER_BOT_ZN_3_WALL_NORTH_WINDOW,PERIMETER_BOT_ZN_3 DAYLT SENSOR 2,1.2336E-002
 Sky Daylight Factors,Overcast Sky,07/21,PERIMETER_BOT_ZN_3 ZN DAYLIGHTINGCONTROLS,PERIMETER_BOT_ZN_3,PERIMETER_BOT_ZN_3_WALL_NORTH_WINDOW,PERIMETER_BOT_ZN_3 DAYLT SENSOR 1,4.2665E-002
 Sky Daylight Factors,Overcast Sky,07/21,PERIMETER_BOT_ZN_3 ZN DAYLIGHTINGCONTROLS,PERIMETER_BOT_ZN_3,PERIMETER_BOT_ZN_3_WALL_NORTH_WINDOW,PERIMETER_BOT_ZN_3 DAYLT SENSOR 2,2.0593E-002
 Sky Daylight Factors,Clear Sky,07/21,PERIMETER_BOT_ZN_4 ZN DAYLIGHTINGCONTROLS,PERIMETER_BOT_ZN_4,PERIMETER_BOT_ZN_4_WALL_WEST_WINDOW,PERIMETER_BOT_ZN_4 DAYLT SENSOR 1,4.3936E-002
 Sky Daylight Factors,Clear Sky,07/21,PERIMETER_BOT_ZN_4 ZN DAYLIGHTINGCONTROLS,PERIMETER_BOT_ZN_4,PERIMETER_BOT_ZN_4_WALL_WEST_WINDOW,PERIMETER_BOT_ZN_4 DAYLT SENSOR 2,2.5476E-002
 Sky Daylight Factors,Clear Turbid Sky,07/21,PERIMETER_BOT_ZN_4 ZN DAYLIGHTINGCONTROLS,PERIMETER_BOT_ZN_4,PERIMETER_BOT_ZN_4_WALL_WEST_WINDOW,PERIMETER_BOT_ZN_4 DAYLT SENSOR 1,3.9235E-002
 Sky Daylight Factors,Clear Turbid Sky,07/21,PERIMETER_BOT_ZN_4 ZN DAYLIGHTINGCONTROLS,PERIMETER_BOT_ZN_4,PERIMETER_BOT_ZN_4_WALL_WEST_WINDOW,PERIMETER_BOT_ZN_4 DAYLT SENSOR 2,2.2441E-002
 Sky Daylight Factors,Intermediate Sky,07/21,PERIMETER_BOT_ZN_4 ZN DAYLIGHTINGCONTROLS,PERIMETER_BOT_ZN_4,PERIMETER_BOT_ZN_4_WALL_WEST_WINDOW,PERIMETER_BOT_ZN_4 DAYLT SENSOR 1,3.2414E-002
 Sky Daylight Factors,Intermediate Sky,07/21,PERIMETER_BOT_ZN_4 ZN DAYLIGHTINGCONTROLS,PERIMETER_BOT_ZN_4,PERIMETER_BOT_ZN_4_WALL_WEST_WINDOW,PERIMETER_BOT_ZN_4 DAYLT SENSOR 2,1.6979E-002
 Sky Daylight Factors,Overcast Sky,07/21,PERIMETER_BOT_ZN_4 ZN DAYLIGHTINGCONTROLS,PERIMETER_BOT_ZN_4,PERIMETER_BOT_ZN_4_WALL_WEST_WINDOW,PERIMETER_BOT_ZN_4 DAYLT SENSOR 1,4.3065E-002
 Sky Daylight Factors,Overcast Sky,07/21,PERIMETER_BOT_ZN_4 ZN DAYLIGHTINGCONTROLS,PERIMETER_BOT_ZN_4,PERIMETER_BOT_ZN_4_WALL_WEST_WINDOW,PERIMETER_BOT_ZN_4 DAYLT SENSOR 2,2.0859E-002
 Sky Daylight Factors,Clear Sky,07/21,PERIMETER_MID_ZN_1 ZN DAYLIGHTINGCONTROLS,PERIMETER_MID_ZN_1,PERIMETER_MID_ZN_1_WALL_SOUTH_WINDOW,PERIMETER_MID_ZN_1 DAYLT SENSOR 1,6.2640E-002
 Sky Daylight Factors,Clear Sky,07/21,PERIMETER_MID_ZN_1 ZN DAYLIGHTINGCONTROLS,PERIMETER_MID_ZN_1,PERIMETER_MID_ZN_1_WALL_SOUTH_WINDOW,PERIMETER_MID_ZN_1 DAYLT SENSOR 2,3.4261E-002
 Sky Daylight Factors,Clear Turbid Sky,07/21,PERIMETER_MID_ZN_1 ZN DAYLIGHTINGCONTROLS,PERIMETER_MID_ZN_1,PERIMETER_MID_ZN_1_WALL_SOUTH_WINDOW,PERIMETER_MID_ZN_1 DAYLT SENSOR 1,6.0509E-002
 Sky Daylight Factors,Clear Turbid Sky,07/21,PERIMETER_MID_ZN_1 ZN DAYLIGHTINGCONTROLS,PERIMETER_MID_ZN_1,PERIMETER_MID_ZN_1_WALL_SOUTH_WINDOW,PERIMETER_MID_ZN_1 DAYLT SENSOR 2,3.2137E-002
 Sky Daylight Factors,Intermediate Sky,07/21,PERIMETER_MID_ZN_1 ZN DAYLIGHTINGCONTROLS,PERIMETER_MID_ZN_1,PERIMETER_MID_ZN_1_WALL_SOUTH_WINDOW,PERIMETER_MID_ZN_1 DAYLT SENSOR 1,4.9450E-002
 Sky Daylight Factors,Intermediate Sky,07/21,PERIMETER_MID_ZN_1 ZN DAYLIGHTINGCONTROLS,PERIMETER_MID_ZN_1,PERIMETER_MID_ZN_1_WALL_SOUTH_WINDOW,PERIMETER_MID_ZN_1 DAYLT SENSOR 2,2.4663E-002
 Sky Daylight Factors,Overcast Sky,07/21,PERIMETER_MID_ZN_1 ZN DAYLIGHTINGCONTROLS,PERIMETER_MID_ZN_1,PERIMETER_MID_ZN_1_WALL_SOUTH_WINDOW,PERIMETER_MID_ZN_1 DAYLT SENSOR 1,4.3932E-002
 Sky Daylight Factors,Overcast Sky,07/21,PERIMETER_MID_ZN_1 ZN DAYLIGHTINGCONTROLS,PERIMETER_MID_ZN_1,PERIMETER_MID_ZN_1_WALL_SOUTH_WINDOW,PERIMETER_MID_ZN_1 DAYLT SENSOR 2,2.1860E-002
 Sky Daylight Factors,Clear Sky,07/21,PERIMETER_MID_ZN_2 ZN DAYLIGHTINGCONTROLS,PERIMETER_MID_ZN_2,PERIMETER_MID_ZN_2_WALL_EAST_WINDOW,PERIMETER_MID_ZN_2 DAYLT SENSOR 1,4.4800E-002
 Sky Daylight Factors,Clear Sky,07/21,PERIMETER_MID_ZN_2 ZN DAYLIGHTINGCONTROLS,PERIMETER_MID_ZN_2,PERIMETER_MID_ZN_2_WALL_EAST_WINDOW,PERIMETER_MID_ZN_2 DAYLT SENSOR 2,2.6679E-002
 Sky Daylight Factors,Clear Turbid Sky,07/21,PERIMETER_MID_ZN_2 ZN DAYLIGHTINGCONTROLS,PERIMETER_MID_ZN_2,PERIMETER_MID_ZN_2_WALL_EAST_WINDOW,PERIMETER_MID_ZN_2 DAYLT SENSOR 1,3.9926E-002
 Sky Daylight Factors,Clear Turbid Sky,07/21,PERIMETER_MID_ZN_2 ZN DAYLIGHTINGCONTROLS,PERIMETER_MID_ZN_2,PERIMETER_MID_ZN_2_WALL_EAST_WINDOW,PERIMETER_MID_ZN_2 DAYLT SENSOR 2,2.3515E-002
 Sky Daylight Factors,Intermediate Sky,07/21,PERIMETER_MID_ZN_2 ZN DAYLIGHTINGCONTROLS,PERIMETER_MID_ZN_2,PERIMETER_MID_ZN_2_WALL_EAST_WINDOW,PERIMETER_MID_ZN_2 DAYLT SENSOR 1,3.3002E-002
 Sky Daylight Factors,Intermediate Sky,07/21,PERIMETER_MID_ZN_2 ZN DAYLIGHTINGCONTROLS,PERIMETER_MID_ZN_2,PERIMETER_MID_ZN_2_WALL_EAST_WINDOW,PERIMETER_MID_ZN_2 DAYLT SENSOR 2,1.7916E-002
 Sky Daylight Factors,Overcast Sky,07/21,PERIMETER_MID_ZN_2 ZN DAYLIGHTINGCONTROLS,PERIMETER_MID_ZN_2,PERIMETER_MID_ZN_2_WALL_EAST_WINDOW,PERIMETER_MID_ZN_2 DAYLT SENSOR 1,4.4411E-002
 Sky Daylight Factors,Overcast Sky,07/21,PERIMETER_MID_ZN_2 ZN DAYLIGHTINGCONTROLS,PERIMETER_MID_ZN_2,PERIMETER_MID_ZN_2_WALL_EAST_WINDOW,PERIMETER_MID_ZN_2 DAYLT SENSOR 2,2.2206E-002
 Sky Daylight Factors,Clear Sky,07/21,PERIMETER_MID_ZN_3 ZN DAYLIGHTINGCONTROLS,PERIMETER_MID_ZN_3,PERIMETER_MID_ZN_3_WALL_NORTH_WINDOW,PERIMETER_MID_ZN_3 DAYLT SENSOR 1,3.5837E-002
 Sky Daylight Factors,Clear Sky,07/21,PERIMETER_MID_ZN_3 ZN DAYLIGHTINGCONTROLS,PERIMETER_MID_ZN_3,PERIMETER_MID_ZN_3_WALL_NORTH_WINDOW,PERIMETER_MID_ZN_3 DAYLT SENSOR 2,2.2797E-002
 Sky Daylight Factors,Clear Turbid Sky,07/21,PERIMETER_MID_ZN_3 ZN DAYLIGHTINGCONTROLS,PERIMETER_MID_ZN_3,PERIMETER_MID_ZN_3_WALL_NORTH_WINDOW,PERIMETER_MID_ZN_3 DAYLT SENSOR 1,3.0086E-002
 Sky Daylight Factors,Clear Turbid Sky,07/21,PERIMETER_MID_ZN_3 ZN DAYLIGHTINGCONTROLS,PERIMETER_MID_ZN_3,PERIMETER_MID_ZN_3_WALL_NORTH_WINDOW,PERIMETER_MID_ZN_3 DAYLT SENSOR 2,1.9205E-002
 Sky Daylight Factors,Intermediate Sky,07/21,PERIMETER_MID_ZN_3 ZN DAYLIGHTINGCONTROLS,PERIMETER_MID_ZN_3,PERIMETER_MID_ZN_3_WALL_NORTH_WINDOW,PERIMETER_MID_ZN_3 DAYLT SENSOR 1,2.2639E-002
 Sky Daylight Factors,Intermediate Sky,07/21,PERIMETER_MID_ZN_3 ZN DAYLIGHTINGCONTROLS,PERIMETER_MID_ZN_3,PERIMETER_MID_ZN_3_WALL_NORTH_WINDOW,PERIMETER_MID_ZN_3 DAYLT SENSOR 2,1.3255E-002
 Sky Daylight Factors,Overcast Sky,07/21,PERIMETER_MID_ZN_3 ZN DAYLIGHTINGCONTROLS,PERIMETER_MID_ZN_3,PERIMETER_MID_ZN_3_WALL_NORTH_WINDOW,PERIMETER_MID_ZN_3 DAYLT SENSOR 1,4.3932E-002
 Sky Daylight Factors,Overcast Sky,07/21,PERIMETER_MID_ZN_3 ZN DAYLIGHTINGCONTROLS,PERIMETER_MID_ZN_3,PERIMETER_MID_ZN_3_WALL_NORTH_WINDOW,PERIMETER_MID_ZN_3 DAYLT SENSOR 2,2.1860E-002
 Sky Daylight Factors,Clear Sky,07/21,PERIMETER_MID_ZN_4 ZN DAYLIGHTINGCONTROLS,PERIMETER_MID_ZN_4,PERIMETER_MID_ZN_4_WALL_WEST_WINDOW,PERIMETER_MID_ZN_4 DAYLT SENSOR 1,4.5397E-002
 Sky Daylight Factors,Clear Sky,07/21,PERIMETER_MID_ZN_4 ZN DAYLIGHTINGCONTROLS,PERIMETER_MID_ZN_4,PERIMETER_MID_ZN_4_WALL_WEST_WINDOW,PERIMETER_MID_ZN_4 DAYLT SENSOR 2,2.6937E-002
 Sky Daylight Factors,Clear Turbid Sky,07/21,PERIMETER_MID_ZN_4 ZN DAYLIGHTINGCONTROLS,PERIMETER_MID_ZN_4,PERIMETER_MID_ZN_4_WALL_WEST_WINDOW,PERIMETER_MID_ZN_4 DAYLT SENSOR 1,4.0599E-002
 Sky Daylight Factors,Clear Turbid Sky,07/21,PERIMETER_MID_ZN_4 ZN DAYLIGHTINGCONTROLS,PERIMETER_MID_ZN_4,PERIMETER_MID_ZN_4_WALL_WEST_WINDOW,PERIMETER_MID_ZN_4 DAYLT SENSOR 2,2.3804E-002
 Sky Daylight Factors,Intermediate Sky,07/21,PERIMETER_MID_ZN_4 ZN DAYLIGHTINGCONTROLS,PERIMETER_MID_ZN_4,PERIMETER_MID_ZN_4_WALL_WEST_WINDOW,PERIMETER_MID_ZN_4 DAYLT SENSOR 1,3.3614E-002
 Sky Daylight Factors,Intermediate Sky,07/21,PERIMETER_MID_ZN_4 ZN DAYLIGHTINGCONTROLS,PERIMETER_MID_ZN_4,PERIMETER_MID_ZN_4_WALL_WEST_WINDOW,PERIMETER_MID_ZN_4 DAYLT SENSOR 2,1.8179E-002
 Sky Daylight Factors,Overcast Sky,07/21,PERIMETER_MID_ZN_4 ZN DAYLIGHTINGCONTROLS,PERIMETER_MID_ZN_4,PERIMETER_MID_ZN_4_WALL_WEST_WINDOW,PERIMETER_MID_ZN_4 DAYLT SENSOR 1,4.4412E-002
 Sky Daylight Factors,Overcast Sky,07/21,PERIMETER_MID_ZN_4 ZN DAYLIGHTINGCONTROLS,PERIMETER_MID_ZN_4,PERIMETER_MID_ZN_4_WALL_WEST_WINDOW,PERIMETER_MID_ZN_4 DAYLT SENSOR 2,2.2206E-002
 Sky Daylight Factors,Clear Sky,07/21,PERIMETER_TOP_ZN_1 ZN DAYLIGHTINGCONTROLS,PERIMETER_TOP_ZN_1,PERIMETER_TOP_ZN_1_WALL_SOUTH_WINDOW,PERIMETER_TOP_ZN_1 DAYLT SENSOR 1,6.2640E-002
 Sky Daylight Factors,Clear Sky,07/21,PERIMETER_TOP_ZN_1 ZN DAYLIGHTINGCONTROLS,PERIMETER_TOP_ZN_1,PERIMETER_TOP_ZN_1_WALL_SOUTH_WINDOW,PERIMETER_TOP_ZN_1 DAYLT SENSOR 2,3.4261E-002
 Sky Daylight Factors,Clear Turbid Sky,07/21,PERIMETER_TOP_ZN_1 ZN DAYLIGHTINGCONTROLS,PERIMETER_TOP_ZN_1,PERIMETER_TOP_ZN_1_WALL_SOUTH_WINDOW,PERIMETER_TOP_ZN_1 DAYLT SENSOR 1,6.0509E-002
 Sky Daylight Factors,Clear Turbid Sky,07/21,PERIMETER_TOP_ZN_1 ZN DAYLIGHTINGCONTROLS,PERIMETER_TOP_ZN_1,PERIMETER_TOP_ZN_1_WALL_SOUTH_WINDOW,PERIMETER_TOP_ZN_1 DAYLT SENSOR 2,3.2137E-002
 Sky Daylight Factors,Intermediate Sky,07/21,PERIMETER_TOP_ZN_1 ZN DAYLIGHTINGCONTROLS,PERIMETER_TOP_ZN_1,PERIMETER_TOP_ZN_1_WALL_SOUTH_WINDOW,PERIMETER_TOP_ZN_1 DAYLT SENSOR 1,4.9450E-002
 Sky Daylight Factors,Intermediate Sky,07/21,PERIMETER_TOP_ZN_1 ZN DAYLIGHTINGCONTROLS,PERIMETER_TOP_ZN_1,PERIMETER_TOP_ZN_1_WALL_SOUTH_WINDOW,PERIMETER_TOP_ZN_1 DAYLT SENSOR 2,2.4663E-002
 Sky Daylight Factors,Overcast Sky,07/21,PERIMETER_TOP_ZN_1 ZN DAYLIGHTINGCONTROLS,PERIMETER_TOP_ZN_1,PERIMETER_TOP_ZN_1_WALL_SOUTH_WINDOW,PERIMETER_TOP_ZN_1 DAYLT SENSOR 1,4.3932E-002
 Sky Daylight Factors,Overcast Sky,07/21,PERIMETER_TOP_ZN_1 ZN DAYLIGHTINGCONTROLS,PERIMETER_TOP_ZN_1,PERIMETER_TOP_ZN_1_WALL_SOUTH_WINDOW,PERIMETER_TOP_ZN_1 DAYLT SENSOR 2,2.1860E-002
 Sky Daylight Factors,Clear Sky,07/21,PERIMETER_TOP_ZN_2 ZN DAYLIGHTINGCONTROLS,PERIMETER_TOP_ZN_2,PERIMETER_TOP_ZN_2_WALL_EAST_WINDOW,PERIMETER_TOP_ZN_2 DAYLT SENSOR 1,4.4800E-002
 Sky Daylight Factors,Clear Sky,07/21,PERIMETER_TOP_ZN_2 ZN DAYLIGHTINGCONTROLS,PERIMETER_TOP_ZN_2,PERIMETER_TOP_ZN_2_WALL_EAST_WINDOW,PERIMETER_TOP_ZN_2 DAYLT SENSOR 2,2.6679E-002
 Sky Daylight Factors,Clear Turbid Sky,07/21,PERIMETER_TOP_ZN_2 ZN DAYLIGHTINGCONTROLS,PERIMETER_TOP_ZN_2,PERIMETER_TOP_ZN_2_WALL_EAST_WINDOW,PERIMETER_TOP_ZN_2 DAYLT SENSOR 1,3.9926E-002
 Sky Daylight Factors,Clear Turbid Sky,07/21,PERIMETER_TOP_ZN_2 ZN DAYLIGHTINGCONTROLS,PERIMETER_TOP_ZN_2,PERIMETER_TOP_ZN_2_WALL_EAST_WINDOW,PERIMETER_TOP_ZN_2 DAYLT SENSOR 2,2.3515E-002
 Sky Daylight Factors,Intermediate Sky,07/21,PERIMETER_TOP_ZN_2 ZN DAYLIGHTINGCONTROLS,PERIMETER_TOP_ZN_2,PERIMETER_TOP_ZN_2_WALL_EAST_WINDOW,PERIMETER_TOP_ZN_2 DAYLT SENSOR 1,3.3002E-002
 Sky Daylight Factors,Intermediate Sky,07/21,PERIMETER_TOP_ZN_2 ZN DAYLIGHTINGCONTROLS,PERIMETER_TOP_ZN_2,PERIMETER_TOP_ZN_2_WALL_EAST_WINDOW,PERIMETER_TOP_ZN_2 DAYLT SENSOR 2,1.7916E-002
 Sky Daylight Factors,Overcast Sky,07/21,PERIMETER_TOP_ZN_2 ZN DAYLIGHTINGCONTROLS,PERIMETER_TOP_ZN_2,PERIMETER_TOP_ZN_2_WALL_EAST_WINDOW,PERIMETER_TOP_ZN_2 DAYLT SENSOR 1,4.4411E-002
 Sky Daylight Factors,Overcast Sky,07/21,PERIMETER_TOP_ZN_2 ZN DAYLIGHTINGCONTROLS,PERIMETER_TOP_ZN_2,PERIMETER_TOP_ZN_2_WALL_EAST_WINDOW,PERIMETER_TOP_ZN_2 DAYLT SENSOR 2,2.2206E-002
 Sky Daylight Factors,Clear Sky,07/21,PERIMETER_TOP_ZN_3 ZN DAYLIGHTINGCONTROLS,PERIMETER_TOP_ZN_3,PERIMETER_TOP_ZN_3_WALL_NORTH_WINDOW,PERIMETER_TOP_ZN_3 DAYLT SENSOR 1,3.5837E-002
 Sky Daylight Factors,Clear Sky,07/21,PERIMETER_TOP_ZN_3 ZN DAYLIGHTINGCONTROLS,PERIMETER_TOP_ZN_3,PERIMETER_TOP_ZN_3_WALL_NORTH_WINDOW,PERIMETER_TOP_ZN_3 DAYLT SENSOR 2,2.2797E-002
 Sky Daylight Factors,Clear Turbid Sky,07/21,PERIMETER_TOP_ZN_3 ZN DAYLIGHTINGCONTROLS,PERIMETER_TOP_ZN_3,PERIMETER_TOP_ZN_3_WALL_NORTH_WINDOW,PERIMETER_TOP_ZN_3 DAYLT SENSOR 1,3.0086E-002
 Sky Daylight Factors,Clear Turbid Sky,07/21,PERIMETER_TOP_ZN_3 ZN DAYLIGHTINGCONTROLS,PERIMETER_TOP_ZN_3,PERIMETER_TOP_ZN_3_WALL_NORTH_WINDOW,PERIMETER_TOP_ZN_3 DAYLT SENSOR 2,1.9205E-002
 Sky Daylight Factors,Intermediate Sky,07/21,PERIMETER_TOP_ZN_3 ZN DAYLIGHTINGCONTROLS,PERIMETER_TOP_ZN_3,PERIMETER_TOP_ZN_3_WALL_NORTH_WINDOW,PERIMETER_TOP_ZN_3 DAYLT SENSOR 1,2.2639E-002
 Sky Daylight Factors,Intermediate Sky,07/21,PERIMETER_TOP_ZN_3 ZN DAYLIGHTINGCONTROLS,PERIMETER_TOP_ZN_3,PERIMETER_TOP_ZN_3_WALL_NORTH_WINDOW,PERIMETER_TOP_ZN_3 DAYLT SENSOR 2,1.3255E-002
 Sky Daylight Factors,Overcast Sky,07/21,PERIMETER_TOP_ZN_3 ZN DAYLIGHTINGCONTROLS,PERIMETER_TOP_ZN_3,PERIMETER_TOP_ZN_3_WALL_NORTH_WINDOW,PERIMETER_TOP_ZN_3 DAYLT SENSOR 1,4.3932E-002
 Sky Daylight Factors,Overcast Sky,07/21,PERIMETER_TOP_ZN_3 ZN DAYLIGHTINGCONTROLS,PERIMETER_TOP_ZN_3,PERIMETER_TOP_ZN_3_WALL_NORTH_WINDOW,PERIMETER_TOP_ZN_3 DAYLT SENSOR 2,2.1860E-002
 Sky Daylight Factors,Clear Sky,07/21,PERIMETER_TOP_ZN_4 ZN DAYLIGHTINGCONTROLS,PERIMETER_TOP_ZN_4,PERIMETER_TOP_ZN_4_WALL_WEST_WINDOW,PERIMETER_TOP_ZN_4 DAYLT SENSOR 1,4.5397E-002
 Sky Daylight Factors,Clear Sky,07/21,PERIMETER_TOP_ZN_4 ZN DAYLIGHTINGCONTROLS,PERIMETER_TOP_ZN_4,PERIMETER_TOP_ZN_4_WALL_WEST_WINDOW,PERIMETER_TOP_ZN_4 DAYLT SENSOR 2,2.6937E-002
 Sky Daylight Factors,Clear Turbid Sky,07/21,PERIMETER_TOP_ZN_4 ZN DAYLIGHTINGCONTROLS,PERIMETER_TOP_ZN_4,PERIMETER_TOP_ZN_4_WALL_WEST_WINDOW,PERIMETER_TOP_ZN_4 DAYLT SENSOR 1,4.0599E-002
 Sky Daylight Factors,Clear Turbid Sky,07/21,PERIMETER_TOP_ZN_4 ZN DAYLIGHTINGCONTROLS,PERIMETER_TOP_ZN_4,PERIMETER_TOP_ZN_4_WALL_WEST_WINDOW,PERIMETER_TOP_ZN_4 DAYLT SENSOR 2,2.3804E-002
 Sky Daylight Factors,Intermediate Sky,07/21,PERIMETER_TOP_ZN_4 ZN DAYLIGHTINGCONTROLS,PERIMETER_TOP_ZN_4,PERIMETER_TOP_ZN_4_WALL_WEST_WINDOW,PERIMETER_TOP_ZN_4 DAYLT SENSOR 1,3.3614E-002
 Sky Daylight Factors,Intermediate Sky,07/21,PERIMETER_TOP_ZN_4 ZN DAYLIGHTINGCONTROLS,PERIMETER_TOP_ZN_4,PERIMETER_TOP_ZN_4_WALL_WEST_WINDOW,PERIMETER_TOP_ZN_4 DAYLT SENSOR 2,1.8179E-002
 Sky Daylight Factors,Overcast Sky,07/21,PERIMETER_TOP_ZN_4 ZN DAYLIGHTINGCONTROLS,PERIMETER_TOP_ZN_4,PERIMETER_TOP_ZN_4_WALL_WEST_WINDOW,PERIMETER_TOP_ZN_4 DAYLT SENSOR 1,4.4412E-002
 Sky Daylight Factors,Overcast Sky,07/21,PERIMETER_TOP_ZN_4 ZN DAYLIGHTINGCONTROLS,PERIMETER_TOP_ZN_4,PERIMETER_TOP_ZN_4_WALL_WEST_WINDOW,PERIMETER_TOP_ZN_4 DAYLT SENSOR 2,2.2206E-002
! <Zone Sizing Information>, Zone Name, Load Type, Calc Des Load {W}, User Des Load {W}, Calc Des Air Flow Rate {m3/s}, User Des Air Flow Rate {m3/s}, Design Day Name, Date/Time of Peak, Temperature at Peak {C}, Humidity Ratio at Peak {kgWater/kgDryAir}, Floor Area {m2}, # Occupants, Calc Outdoor Air Flow Rate {m3/s}, Calc DOAS Heat Addition Rate {W}
 Zone Sizing Information, CORE_BOTTOM ZN, Cooling, 42654.62330, 42654.62330, 3.14121, 3.14121, CHICAGO OHARE INTL AP ANN CLG .4% CONDNS DB=>MWB, 7/21 08:00:00, 25.53000, 1.49713E-002, 983.53657, 52.93350, 0.42469, 0.00000
 Zone Sizing Information, CORE_BOTTOM ZN, Heating, 7961.06469, 7961.06469, 0.22601, 0.42469, CHICAGO OHARE INTL AP ANN HTG 99.6% CONDNS DB, 1/21 08:00:00, -20.00000, 6.49857E-004, 983.53657, 52.93350, 0.42469, 0.00000
 Zone Sizing Information, CORE_MID ZN, Cooling, 31675.64728, 31675.64728, 2.33051, 2.33051, CHICAGO OHARE INTL AP ANN CLG .4% CONDNS DB=>MWB, 7/21 08:00:00, 25.53000, 1.49713E-002, 983.53657, 52.93350, 0.42469, 0.00000
 Zone Sizing Information, CORE_MID ZN, Heating, 14683.85164, 14683.85164, 0.41874, 0.42469, CHICAGO OHARE INTL AP ANN HTG 99.6% CONDNS DB, 1/21 08:00:00, -20.00000, 6.49857E-004, 983.53657, 52.93350, 0.42469, 0.00000
 Zone Sizing Information, CORE_TOP ZN, Cooling, 32124.84334, 32124.84334, 2.36377, 2.36377, CHICAGO OHARE INTL AP ANN CLG .4% CONDNS DB=>MWB, 7/21 08:00:00, 25.53000, 1.49713E-002, 983.53657, 52.93350, 0.42469, 0.00000
 Zone Sizing Information, CORE_TOP ZN, Heating, 26607.41813, 26607.41813, 0.76106, 0.76106, CHICAGO OHARE INTL AP ANN HTG 99.6% CONDNS DB, 1/21 08:00:00, -20.00000, 6.49857E-004, 983.53657, 52.93350, 0.42469, 0.00000
 Zone Sizing Information, PERIMETER_BOT_ZN_1 ZN, Cooling, 10867.92888, 10867.92888, 0.80701, 0.80701, CHICAGO OHARE INTL AP ANN CLG .4% CONDNS DB=>MWB, 7/21 13:00:00, 32.77500, 1.49846E-002, 207.33814, 11.15885, 8.95286E-002, 0.00000
 Zone Sizing Information, PERIMETER_BOT_ZN_1 ZN, Heating, 8581.10822, 8581.10822, 0.24573, 0.24573, CHICAGO OHARE INTL AP ANN HTG 99.6% CONDNS DB, 1/21 08:00:00, -20.00000, 6.49857E-004, 207.33814, 11.15885, 8.95286E-002, 0.00000
 Zone Sizing Information, PERIMETER_BOT_ZN_2 ZN, Cooling, 10813.80001, 10813.80001, 0.79733, 0.79733, CHICAGO OHARE INTL AP ANN CLG .4% CONDNS DB=>MWB, 7/21 08:00:00, 25.53000, 1.49713E-002, 131.26219, 7.06447, 5.66790E-002, 0.00000
 Zone Sizing Information, PERIMETER_BOT_ZN_2 ZN, Heating, 5604.48498, 5604.48498, 0.16050, 0.16050, CHICAGO OHARE INTL AP ANN HTG 99.6% CONDNS DB, 1/21 08:00:00, -20.00000, 6.49857E-004, 131.26219, 7.06447, 5.66790E-002, 0.00000
 Zone Sizing Information, PERIMETER_BOT_ZN_3 ZN, Cooling, 6840.26168, 6840.26168, 0.50794, 0.50794, CHICAGO OHARE INTL AP ANN CLG .4% CONDNS DB=>MWB, 7/21 14:30:00, 33.30000, 1.49856E-002, 207.33814, 11.15885, 8.95286E-002, 0.00000
 Zone Sizing Information, PERIMETER_BOT_ZN_3 ZN, Heating, 8581.03729, 8581.03729, 0.24573, 0.24573, CHICAGO OHARE INTL AP ANN HTG 99.6% CONDNS DB, 1/21 08:00:00, -20.00000, 6.49857E-004, 207.33814, 11.15885, 8.95286E-002, 0.00000
 Zone Sizing Information, PERIMETER_BOT_ZN_4 ZN, Cooling, 10780.19940, 10780.19940, 0.80049, 0.80049, CHICAGO OHARE INTL AP ANN CLG .4% CONDNS DB=>MWB, 7/21 16:50:00, 31.97000, 1.49831E-002, 131.25358, 7.06401, 5.66753E-002, 0.00000
 Zone Sizing Information, PERIMETER_BOT_ZN_4 ZN, Heating, 5694.29347, 5694.29347, 0.16308, 0.16308, CHICAGO OHARE INTL AP ANN HTG 99.6% CONDNS DB, 1/21 08:00:00, -20.00000, 6.49857E-004, 131.25358, 7.06401, 5.66753E-002, 0.00000
 Zone Sizing Information, PERIMETER_MID_ZN_1 ZN, Cooling, 12437.90919, 12437.90919, 0.92360, 0.92360, CHICAGO OHARE INTL AP ANN CLG .4% CONDNS DB=>MWB, 7/21 13:00:00, 32.77500, 1.49846E-002, 207.33814, 11.15885, 8.95286E-002, 0.00000
 Zone Sizing Information, PERIMETER_MID_ZN_1 ZN, Heating, 10255.53523, 10255.53523, 0.29380, 0.29380, CHICAGO OHARE INTL AP ANN HTG 99.6% CONDNS DB, 1/21 08:00:00, -20.00000, 6.49857E-004, 207.33814, 11.15885, 8.95286E-002, 0.00000
 Zone Sizing Information, PERIMETER_MID_ZN_2 ZN, Cooling, 11969.94666, 11969.94666, 0.88261, 0.88261, CHICAGO OHARE INTL AP ANN CLG .4% CONDNS DB=>MWB, 7/21 08:00:00, 25.53000, 1.49713E-002, 131.26219, 7.06447, 5.66790E-002, 0.00000
 Zone Sizing Information, PERIMETER_MID_ZN_2 ZN, Heating, 6657.44240, 6657.44240, 0.19073, 0.19073, CHICAGO OHARE INTL AP ANN HTG 99.6% CONDNS DB, 1/21 08:00:00, -20.00000, 6.49857E-004, 131.26219, 7.06447, 5.66790E-002, 0.00000
 Zone Sizing Information, PERIMETER_MID_ZN_3 ZN, Cooling, 8316.15584, 8316.15584, 0.61753, 0.61753, CHICAGO OHARE INTL AP ANN CLG .4% CONDNS DB=>MWB, 7/21 14:20:00, 33.30000, 1.49856E-002, 207.33814, 11.15885, 8.95286E-002, 0.00000
 Zone Sizing Information, PERIMETER_MID_ZN_3 ZN, Heating, 10255.47400, 10255.47400, 0.29379, 0.29379, CHICAGO OHARE INTL AP ANN HTG 99.6% CONDNS DB, 1/21 08:00:00, -20.00000, 6.49857E-004, 207.33814, 11.15885, 8.95286E-002, 0.00000
 Zone Sizing Information, PERIMETER_MID_ZN_4 ZN, Cooling, 11826.74557, 11826.74557, 0.87821, 0.87821, CHICAGO OHARE INTL AP ANN CLG .4% CONDNS DB=>MWB, 7/21 16:50:00, 31.97000, 1.49831E-002, 131.25358, 7.06401, 5.66753E-002, 0.00000
 Zone Sizing Information, PERIMETER_MID_ZN_4 ZN, Heating, 6762.20217, 6762.20217, 0.19374, 0.19374, CHICAGO OHARE INTL AP ANN HTG 99.6% CONDNS DB, 1/21 08:00:00, -20.00000, 6.49857E-004, 131.25358, 7.06401, 5.66753E-002, 0.00000
 Zone Sizing Information, PERIMETER_TOP_ZN_1 ZN, Cooling, 13348.83928, 13348.83928, 0.99124, 0.99124, CHICAGO OHARE INTL AP ANN CLG .4% CONDNS DB=>MWB, 7/21 13:00:00, 32.77500, 1.49846E-002, 207.33814, 11.15885, 8.95286E-002, 0.00000
 Zone Sizing Information, PERIMETER_TOP_ZN_1 ZN, Heating, 12642.67770, 12642.67770, 0.36232, 0.36232, CHICAGO OHARE INTL AP ANN HTG 99.6% CONDNS DB, 1/21 08:00:00, -20.00000, 6.49857E-004, 207.33814, 11.15885, 8.95286E-002, 0.00000
 Zone Sizing Information, PERIMETER_TOP_ZN_2 ZN, Cooling, 12012.58819, 12012.58819, 0.88578, 0.88578, CHICAGO OHARE INTL AP ANN CLG .4% CONDNS DB=>MWB, 7/21 08:00:00, 25.53000, 1.49713E-002, 131.26219, 7.06447, 5.66790E-002, 0.00000
 Zone Sizing Information, PERIMETER_TOP_ZN_2 ZN, Heating, 8167.73070, 8167.73070, 0.23408, 0.23408, CHICAGO OHARE INTL AP ANN HTG 99.6% CONDNS DB, 1/21 08:00:00, -20.00000, 6.49857E-004, 131.26219, 7.06447, 5.66790E-002, 0.00000
 Zone Sizing Information, PERIMETER_TOP_ZN_3 ZN, Cooling, 9323.54941, 9323.54941, 0.69234, 0.69234, CHICAGO OHARE INTL AP ANN CLG .4% CONDNS DB=>MWB, 7/21 14:40:00, 33.30000, 1.49856E-002, 207.33814, 11.15885, 8.95286E-002, 0.00000
 Zone Sizing Information, PERIMETER_TOP_ZN_3 ZN, Heating, 12642.62936, 12642.62936, 0.36232, 0.36232, CHICAGO OHARE INTL AP ANN HTG 99.6% CONDNS DB, 1/21 08:00:00, -20.00000, 6.49857E-004, 207.33814, 11.15885, 8.95286E-002, 0.00000
 Zone Sizing Information, PERIMETER_TOP_ZN_4 ZN, Cooling, 12439.48753, 12439.48753, 0.92371, 0.92371, CHICAGO OHARE INTL AP ANN CLG .4% CONDNS DB=>MWB, 7/21 16:40:00, 32.11000, 1.49834E-002, 131.25358, 7.06401, 5.66753E-002, 0.00000
 Zone Sizing Information, PERIMETER_TOP_ZN_4 ZN, Heating, 8276.35132, 8276.35132, 0.23720, 0.23720, CHICAGO OHARE INTL AP ANN HTG 99.6% CONDNS DB, 1/21 08:00:00, -20.00000, 6.49857E-004, 131.25358, 7.06401, 5.66753E-002, 0.00000
! <System Sizing Information>, System Name, Load Type, Peak Load Kind, User Design Capacity [W], Calc Des Air Flow Rate [m3/s], User Des Air Flow Rate [m3/s], Design Day Name, Date/Time of Peak
 System Sizing Information, 5 ZONE PVAV, Cooling, Sensible, 79869.39, 5.15821, 5.15821, CHICAGO OHARE INTL AP ANN CLG .4% CONDNS DB=>MWB, 7/21 15:00:00
 System Sizing Information, 5 ZONE PVAV, Heating, Sensible, 46230.14, 1.23973, 1.23973, CHICAGO OHARE INTL AP ANN HTG 99.6% CONDNS DB, 1/21 08:10:00
 System Sizing Information, 5 ZONE PVAV 1, Cooling, Sensible, 74104.65, 4.74835, 4.74835, CHICAGO OHARE INTL AP ANN CLG .4% CONDNS DB=>MWB, 7/21 15:00:00
 System Sizing Information, 5 ZONE PVAV 1, Heating, Sensible, 46277.90, 1.39675, 1.39675, CHICAGO OHARE INTL AP ANN HTG 99.6% CONDNS DB, 1/21 14:50:00
 System Sizing Information, 5 ZONE VAV, Cooling, Sensible, 81863.15, 5.18365, 5.18365, CHICAGO OHARE INTL AP ANN CLG .4% CONDNS DB=>MWB, 7/21 15:00:00
 System Sizing Information, 5 ZONE VAV, Heating, Sensible, 46122.15, 1.95698, 1.95698, CHICAGO OHARE INTL AP ANN HTG 99.6% CONDNS DB, 1/21 06:00:00
! <Component Sizing Information>, Component Type, Component Name, Input Field Description, Value
 Component Sizing Information, AirTerminal:SingleDuct:VAV:Reheat, CORE_BOTTOM ZN VAV TERMINAL, Design Size Maximum Air Flow Rate [m3/s], 3.14121
 Component Sizing Information, AirTerminal:SingleDuct:VAV:Reheat, CORE_BOTTOM ZN VAV TERMINAL, Design Size Constant Minimum Air Flow Fraction, 0.23859
 Component Sizing Information, AirTerminal:SingleDuct:VAV:Reheat, CORE_BOTTOM ZN VAV TERMINAL, User-Specified Constant Minimum Air Flow Fraction, 0.30000
 Component Sizing Information, AirTerminal:SingleDuct:VAV:Reheat, CORE_BOTTOM ZN VAV TERMINAL, Design Size Minimum Air Flow Rate [m3/s], 0.94236
 Component Sizing Information, AirTerminal:SingleDuct:VAV:Reheat, CORE_BOTTOM ZN VAV TERMINAL, Design Size Maximum Flow per Zone Floor Area during Reheat [m3/s-m2], 9.58137E-004
 Component Sizing Information, AirTerminal:SingleDuct:VAV:Reheat, CORE_BOTTOM ZN VAV TERMINAL, Design Size Maximum Flow Fraction during Reheat [], 0.30000
 Component Sizing Information, Coil:Heating:Electric, CORE_BOTTOM ZN ELECTRIC REHEAT COIL, Design Size Nominal Capacity [W], 42059.33823
 Component Sizing Information, AirTerminal:SingleDuct:VAV:Reheat, CORE_MID ZN VAV TERMINAL, Design Size Maximum Air Flow Rate [m3/s], 2.33051
 Component Sizing Information, AirTerminal:SingleDuct:VAV:Reheat, CORE_MID ZN VAV TERMINAL, Design Size Constant Minimum Air Flow Fraction, 0.32158
 Component Sizing Information, AirTerminal:SingleDuct:VAV:Reheat, CORE_MID ZN VAV TERMINAL, User-Specified Constant Minimum Air Flow Fraction, 0.34621
 Component Sizing Information, AirTerminal:SingleDuct:VAV:Reheat, CORE_MID ZN VAV TERMINAL, Design Size Minimum Air Flow Rate [m3/s], 0.80684
 Component Sizing Information, AirTerminal:SingleDuct:VAV:Reheat, CORE_MID ZN VAV TERMINAL, Design Size Maximum Flow per Zone Floor Area during Reheat [m3/s-m2], 8.20346E-004
 Component Sizing Information, AirTerminal:SingleDuct:VAV:Reheat, CORE_MID ZN VAV TERMINAL, Design Size Maximum Flow Fraction during Reheat [], 0.34621
 Component Sizing Information, Coil:Heating:Electric, CORE_MID ZN ELECTRIC REHEAT COIL, Design Size Nominal Capacity [W], 36010.74549
 Component Sizing Information, AirTerminal:SingleDuct:VAV:Reheat, CORE_TOP ZN VAV TERMINAL, Design Size Maximum Air Flow Rate [m3/s], 2.36377
 Component Sizing Information, AirTerminal:SingleDuct:VAV:Reheat, CORE_TOP ZN VAV TERMINAL, Design Size Constant Minimum Air Flow Fraction, 0.31706
 Component Sizing Information, AirTerminal:SingleDuct:VAV:Reheat, CORE_TOP ZN VAV TERMINAL, User-Specified Constant Minimum Air Flow Fraction, 0.34194
 Component Sizing Information, AirTerminal:SingleDuct:VAV:Reheat, CORE_TOP ZN VAV TERMINAL, Design Size Minimum Air Flow Rate [m3/s], 0.80826
 Component Sizing Information, AirTerminal:SingleDuct:VAV:Reheat, CORE_TOP ZN VAV TERMINAL, Design Size Maximum Flow per Zone Floor Area during Reheat [m3/s-m2], 8.21789E-004
 Component Sizing Information, AirTerminal:SingleDuct:VAV:Reheat, CORE_TOP ZN VAV TERMINAL, Design Size Maximum Flow Fraction during Reheat [], 0.34194
 Component Sizing Information, Coil:Heating:Electric, CORE_TOP ZN ELECTRIC REHEAT COIL, Design Size Nominal Capacity [W], 36074.06070
 Component Sizing Information, AirTerminal:SingleDuct:VAV:Reheat, PERIMETER_BOT_ZN_1 ZN VAV TERMINAL, Design Size Maximum Air Flow Rate [m3/s], 0.80701
 Component Sizing Information, AirTerminal:SingleDuct:VAV:Reheat, PERIMETER_BOT_ZN_1 ZN VAV TERMINAL, Design Size Constant Minimum Air Flow Fraction, 0.19577
 Component Sizing Information, AirTerminal:SingleDuct:VAV:Reheat, PERIMETER_BOT_ZN_1 ZN VAV TERMINAL, User-Specified Constant Minimum Air Flow Fraction, 0.30000
 Component Sizing Information, AirTerminal:SingleDuct:VAV:Reheat, PERIMETER_BOT_ZN_1 ZN VAV TERMINAL, Design Size Minimum Air Flow Rate [m3/s], 0.24210
 Component Sizing Information, AirTerminal:SingleDuct:VAV:Reheat, PERIMETER_BOT_ZN_1 ZN VAV TERMINAL, Design Size Maximum Flow per Zone Floor Area during Reheat [m3/s-m2], 1.16768E-003
 Component Sizing Information, AirTerminal:SingleDuct:VAV:Reheat, PERIMETER_BOT_ZN_1 ZN VAV TERMINAL, Design Size Maximum Flow Fraction during Reheat [], 0.30000
 Component Sizing Information, Coil:Heating:Electric, PERIMETER_BOT_ZN_1 ZN ELECTRIC REHEAT COIL, Design Size Nominal Capacity [W], 10967.34106
 Component Sizing Information, AirTerminal:SingleDuct:VAV:Reheat, PERIMETER_BOT_ZN_2 ZN VAV TERMINAL, Design Size Maximum Air Flow Rate [m3/s], 0.79733
 Component Sizing Information, AirTerminal:SingleDuct:VAV:Reheat, PERIMETER_BOT_ZN_2 ZN VAV TERMINAL, Design Size Constant Minimum Air Flow Fraction, 0.12545
 Component Sizing Information, AirTerminal:SingleDuct:VAV:Reheat, PERIMETER_BOT_ZN_2 ZN VAV TERMINAL, User-Specified Constant Minimum Air Flow Fraction, 0.30000
 Component Sizing Information, AirTerminal:SingleDuct:VAV:Reheat, PERIMETER_BOT_ZN_2 ZN VAV TERMINAL, Design Size Minimum Air Flow Rate [m3/s], 0.23920
 Component Sizing Information, AirTerminal:SingleDuct:VAV:Reheat, PERIMETER_BOT_ZN_2 ZN VAV TERMINAL, Design Size Maximum Flow per Zone Floor Area during Reheat [m3/s-m2], 1.82231E-003
 Component Sizing Information, AirTerminal:SingleDuct:VAV:Reheat, PERIMETER_BOT_ZN_2 ZN VAV TERMINAL, Design Size Maximum Flow Fraction during Reheat [], 0.30000
 Component Sizing Information, Coil:Heating:Electric, PERIMETER_BOT_ZN_2 ZN ELECTRIC REHEAT COIL, Design Size Nominal Capacity [W], 10675.94090
 Component Sizing Information, AirTerminal:SingleDuct:VAV:Reheat, PERIMETER_BOT_ZN_3 ZN VAV TERMINAL, Design Size Maximum Air Flow Rate [m3/s], 0.50794
 Component Sizing Information, AirTerminal:SingleDuct:VAV:Reheat, PERIMETER_BOT_ZN_3 ZN VAV TERMINAL, Design Size Constant Minimum Air Flow Fraction, 0.31105
 Component Sizing Information, AirTerminal:SingleDuct:VAV:Reheat, PERIMETER_BOT_ZN_3 ZN VAV TERMINAL, User-Specified Constant Minimum Air Flow Fraction, 0.30626
 Component Sizing Information, AirTerminal:SingleDuct:VAV:Reheat, PERIMETER_BOT_ZN_3 ZN VAV TERMINAL, Design Size Minimum Air Flow Rate [m3/s], 0.15556
 Component Sizing Information, AirTerminal:SingleDuct:VAV:Reheat, PERIMETER_BOT_ZN_3 ZN VAV TERMINAL, Design Size Maximum Flow per Zone Floor Area during Reheat [m3/s-m2], 7.50278E-004
 Component Sizing Information, AirTerminal:SingleDuct:VAV:Reheat, PERIMETER_BOT_ZN_3 ZN VAV TERMINAL, Design Size Maximum Flow Fraction during Reheat [], 0.30626
 Component Sizing Information, Coil:Heating:Electric, PERIMETER_BOT_ZN_3 ZN ELECTRIC REHEAT COIL, Design Size Nominal Capacity [W], 10967.25017
 Component Sizing Information, AirTerminal:SingleDuct:VAV:Reheat, PERIMETER_BOT_ZN_4 ZN VAV TERMINAL, Design Size Maximum Air Flow Rate [m3/s], 0.80049
 Component Sizing Information, AirTerminal:SingleDuct:VAV:Reheat, PERIMETER_BOT_ZN_4 ZN VAV TERMINAL, Design Size Constant Minimum Air Flow Fraction, 0.12494
 Component Sizing Information, AirTerminal:SingleDuct:VAV:Reheat, PERIMETER_BOT_ZN_4 ZN VAV TERMINAL, User-Specified Constant Minimum Air Flow Fraction, 0.30000
 Component Sizing Information, AirTerminal:SingleDuct:VAV:Reheat, PERIMETER_BOT_ZN_4 ZN VAV TERMINAL, Design Size Minimum Air Flow Rate [m3/s], 0.24015
 Component Sizing Information, AirTerminal:SingleDuct:VAV:Reheat, PERIMETER_BOT_ZN_4 ZN VAV TERMINAL, Design Size Maximum Flow per Zone Floor Area during Reheat [m3/s-m2], 1.82965E-003
 Component Sizing Information, AirTerminal:SingleDuct:VAV:Reheat, PERIMETER_BOT_ZN_4 ZN VAV TERMINAL, Design Size Maximum Flow Fraction during Reheat [], 0.30000
 Component Sizing Information, Coil:Heating:Electric, PERIMETER_BOT_ZN_4 ZN ELECTRIC REHEAT COIL, Design Size Nominal Capacity [W], 10718.21945
 Component Sizing Information, AirTerminal:SingleDuct:VAV:Reheat, PERIMETER_MID_ZN_1 ZN VAV TERMINAL, Design Size Maximum Air Flow Rate [m3/s], 0.92360
 Component Sizing Information, AirTerminal:SingleDuct:VAV:Reheat, PERIMETER_MID_ZN_1 ZN VAV TERMINAL, Design Size Constant Minimum Air Flow Fraction, 0.17106
 Component Sizing Information, AirTerminal:SingleDuct:VAV:Reheat, PERIMETER_MID_ZN_1 ZN VAV TERMINAL, User-Specified Constant Minimum Air Flow Fraction, 0.30000
 Component Sizing Information, AirTerminal:SingleDuct:VAV:Reheat, PERIMETER_MID_ZN_1 ZN VAV TERMINAL, Design Size Minimum Air Flow Rate [m3/s], 0.27708
 Component Sizing Information, AirTerminal:SingleDuct:VAV:Reheat, PERIMETER_MID_ZN_1 ZN VAV TERMINAL, Design Size Maximum Flow per Zone Floor Area during Reheat [m3/s-m2], 1.33637E-003
 Component Sizing Information, AirTerminal:SingleDuct:VAV:Reheat, PERIMETER_MID_ZN_1 ZN VAV TERMINAL, Design Size Maximum Flow Fraction during Reheat [], 0.30000
 Component Sizing Information, Coil:Heating:Electric, PERIMETER_MID_ZN_1 ZN ELECTRIC REHEAT COIL, Design Size Nominal Capacity [W], 13112.63143
 Component Sizing Information, AirTerminal:SingleDuct:VAV:Reheat, PERIMETER_MID_ZN_2 ZN VAV TERMINAL, Design Size Maximum Air Flow Rate [m3/s], 0.88261
 Component Sizing Information, AirTerminal:SingleDuct:VAV:Reheat, PERIMETER_MID_ZN_2 ZN VAV TERMINAL, Design Size Constant Minimum Air Flow Fraction, 0.11333
 Component Sizing Information, AirTerminal:SingleDuct:VAV:Reheat, PERIMETER_MID_ZN_2 ZN VAV TERMINAL, User-Specified Constant Minimum Air Flow Fraction, 0.30000
 Component Sizing Information, AirTerminal:SingleDuct:VAV:Reheat, PERIMETER_MID_ZN_2 ZN VAV TERMINAL, Design Size Minimum Air Flow Rate [m3/s], 0.26478
 Component Sizing Information, AirTerminal:SingleDuct:VAV:Reheat, PERIMETER_MID_ZN_2 ZN VAV TERMINAL, Design Size Maximum Flow per Zone Floor Area during Reheat [m3/s-m2], 2.01721E-003
 Component Sizing Information, AirTerminal:SingleDuct:VAV:Reheat, PERIMETER_MID_ZN_2 ZN VAV TERMINAL, Design Size Maximum Flow Fraction during Reheat [], 0.30000
 Component Sizing Information, Coil:Heating:Electric, PERIMETER_MID_ZN_2 ZN ELECTRIC REHEAT COIL, Design Size Nominal Capacity [W], 11817.73432
 Component Sizing Information, AirTerminal:SingleDuct:VAV:Reheat, PERIMETER_MID_ZN_3 ZN VAV TERMINAL, Design Size Maximum Air Flow Rate [m3/s], 0.61753
 Component Sizing Information, AirTerminal:SingleDuct:VAV:Reheat, PERIMETER_MID_ZN_3 ZN VAV TERMINAL, Design Size Constant Minimum Air Flow Fraction, 0.25584
 Component Sizing Information, AirTerminal:SingleDuct:VAV:Reheat, PERIMETER_MID_ZN_3 ZN VAV TERMINAL, User-Specified Constant Minimum Air Flow Fraction, 0.30000
 Component Sizing Information, AirTerminal:SingleDuct:VAV:Reheat, PERIMETER_MID_ZN_3 ZN VAV TERMINAL, Design Size Minimum Air Flow Rate [m3/s], 0.18526
 Component Sizing Information, AirTerminal:SingleDuct:VAV:Reheat, PERIMETER_MID_ZN_3 ZN VAV TERMINAL, Design Size Maximum Flow per Zone Floor Area during Reheat [m3/s-m2], 8.93517E-004
 Component Sizing Information, AirTerminal:SingleDuct:VAV:Reheat, PERIMETER_MID_ZN_3 ZN VAV TERMINAL, Design Size Maximum Flow Fraction during Reheat [], 0.30000
 Component Sizing Information, Coil:Heating:Electric, PERIMETER_MID_ZN_3 ZN ELECTRIC REHEAT COIL, Design Size Nominal Capacity [W], 13112.55298
 Component Sizing Information, AirTerminal:SingleDuct:VAV:Reheat, PERIMETER_MID_ZN_4 ZN VAV TERMINAL, Design Size Maximum Air Flow Rate [m3/s], 0.87821
 Component Sizing Information, AirTerminal:SingleDuct:VAV:Reheat, PERIMETER_MID_ZN_4 ZN VAV TERMINAL, Design Size Constant Minimum Air Flow Fraction, 0.11389
 Component Sizing Information, AirTerminal:SingleDuct:VAV:Reheat, PERIMETER_MID_ZN_4 ZN VAV TERMINAL, User-Specified Constant Minimum Air Flow Fraction, 0.30000
 Component Sizing Information, AirTerminal:SingleDuct:VAV:Reheat, PERIMETER_MID_ZN_4 ZN VAV TERMINAL, Design Size Minimum Air Flow Rate [m3/s], 0.26346
 Component Sizing Information, AirTerminal:SingleDuct:VAV:Reheat, PERIMETER_MID_ZN_4 ZN VAV TERMINAL, Design Size Maximum Flow per Zone Floor Area during Reheat [m3/s-m2], 2.00728E-003
 Component Sizing Information, AirTerminal:SingleDuct:VAV:Reheat, PERIMETER_MID_ZN_4 ZN VAV TERMINAL, Design Size Maximum Flow Fraction during Reheat [], 0.30000
 Component Sizing Information, Coil:Heating:Electric, PERIMETER_MID_ZN_4 ZN ELECTRIC REHEAT COIL, Design Size Nominal Capacity [W], 11758.83212
 Component Sizing Information, AirTerminal:SingleDuct:VAV:Reheat, PERIMETER_TOP_ZN_1 ZN VAV TERMINAL, Design Size Maximum Air Flow Rate [m3/s], 0.99124
 Component Sizing Information, AirTerminal:SingleDuct:VAV:Reheat, PERIMETER_TOP_ZN_1 ZN VAV TERMINAL, Design Size Constant Minimum Air Flow Fraction, 0.15939
 Component Sizing Information, AirTerminal:SingleDuct:VAV:Reheat, PERIMETER_TOP_ZN_1 ZN VAV TERMINAL, User-Specified Constant Minimum Air Flow Fraction, 0.30000
 Component Sizing Information, AirTerminal:SingleDuct:VAV:Reheat, PERIMETER_TOP_ZN_1 ZN VAV TERMINAL, Design Size Minimum Air Flow Rate [m3/s], 0.29737
 Component Sizing Information, AirTerminal:SingleDuct:VAV:Reheat, PERIMETER_TOP_ZN_1 ZN VAV TERMINAL, Design Size Maximum Flow per Zone Floor Area during Reheat [m3/s-m2], 1.43424E-003
 Component Sizing Information, AirTerminal:SingleDuct:VAV:Reheat, PERIMETER_TOP_ZN_1 ZN VAV TERMINAL, Design Size Maximum Flow Fraction during Reheat [], 0.30000
 Component Sizing Information, Coil:Heating:Electric, PERIMETER_TOP_ZN_1 ZN ELECTRIC REHEAT COIL, Design Size Nominal Capacity [W], 16170.91432
 Component Sizing Information, AirTerminal:SingleDuct:VAV:Reheat, PERIMETER_TOP_ZN_2 ZN VAV TERMINAL, Design Size Maximum Air Flow Rate [m3/s], 0.88578
 Component Sizing Information, AirTerminal:SingleDuct:VAV:Reheat, PERIMETER_TOP_ZN_2 ZN VAV TERMINAL, Design Size Constant Minimum Air Flow Fraction, 0.11292
 Component Sizing Information, AirTerminal:SingleDuct:VAV:Reheat, PERIMETER_TOP_ZN_2 ZN VAV TERMINAL, User-Specified Constant Minimum Air Flow Fraction, 0.30000
 Component Sizing Information, AirTerminal:SingleDuct:VAV:Reheat, PERIMETER_TOP_ZN_2 ZN VAV TERMINAL, Design Size Minimum Air Flow Rate [m3/s], 0.26573
 Component Sizing Information, AirTerminal:SingleDuct:VAV:Reheat, PERIMETER_TOP_ZN_2 ZN VAV TERMINAL, Design Size Maximum Flow per Zone Floor Area during Reheat [m3/s-m2], 2.02444E-003
 Component Sizing Information, AirTerminal:SingleDuct:VAV:Reheat, PERIMETER_TOP_ZN_2 ZN VAV TERMINAL, Design Size Maximum Flow Fraction during Reheat [], 0.30000
 Component Sizing Information, Coil:Heating:Electric, PERIMETER_TOP_ZN_2 ZN ELECTRIC REHEAT COIL, Design Size Nominal Capacity [W], 11860.12455
 Component Sizing Information, AirTerminal:SingleDuct:VAV:Reheat, PERIMETER_TOP_ZN_3 ZN VAV TERMINAL, Design Size Maximum Air Flow Rate [m3/s], 0.69234
 Component Sizing Information, AirTerminal:SingleDuct:VAV:Reheat, PERIMETER_TOP_ZN_3 ZN VAV TERMINAL, Design Size Constant Minimum Air Flow Fraction, 0.22820
 Component Sizing Information, AirTerminal:SingleDuct:VAV:Reheat, PERIMETER_TOP_ZN_3 ZN VAV TERMINAL, User-Specified Constant Minimum Air Flow Fraction, 0.30000
 Component Sizing Information, AirTerminal:SingleDuct:VAV:Reheat, PERIMETER_TOP_ZN_3 ZN VAV TERMINAL, Design Size Minimum Air Flow Rate [m3/s], 0.20770
 Component Sizing Information, AirTerminal:SingleDuct:VAV:Reheat, PERIMETER_TOP_ZN_3 ZN VAV TERMINAL, Design Size Maximum Flow per Zone Floor Area during Reheat [m3/s-m2], 1.00176E-003
 Component Sizing Information, AirTerminal:SingleDuct:VAV:Reheat, PERIMETER_TOP_ZN_3 ZN VAV TERMINAL, Design Size Maximum Flow Fraction during Reheat [], 0.30000
 Component Sizing Information, Coil:Heating:Electric, PERIMETER_TOP_ZN_3 ZN ELECTRIC REHEAT COIL, Design Size Nominal Capacity [W], 16170.85238
 Component Sizing Information, AirTerminal:SingleDuct:VAV:Reheat, PERIMETER_TOP_ZN_4 ZN VAV TERMINAL, Design Size Maximum Air Flow Rate [m3/s], 0.92371
 Component Sizing Information, AirTerminal:SingleDuct:VAV:Reheat, PERIMETER_TOP_ZN_4 ZN VAV TERMINAL, Design Size Constant Minimum Air Flow Fraction, 0.10828
 Component Sizing Information, AirTerminal:SingleDuct:VAV:Reheat, PERIMETER_TOP_ZN_4 ZN VAV TERMINAL, User-Specified Constant Minimum Air Flow Fraction, 0.30000
 Component Sizing Information, AirTerminal:SingleDuct:VAV:Reheat, PERIMETER_TOP_ZN_4 ZN VAV TERMINAL, Design Size Minimum Air Flow Rate [m3/s], 0.27711
 Component Sizing Information, AirTerminal:SingleDuct:VAV:Reheat, PERIMETER_TOP_ZN_4 ZN VAV TERMINAL, Design Size Maximum Flow per Zone Floor Area during Reheat [m3/s-m2], 2.11129E-003
 Component Sizing Information, AirTerminal:SingleDuct:VAV:Reheat, PERIMETER_TOP_ZN_4 ZN VAV TERMINAL, Design Size Maximum Flow Fraction during Reheat [], 0.30000
 Component Sizing Information, Coil:Heating:Electric, PERIMETER_TOP_ZN_4 ZN ELECTRIC REHEAT COIL, Design Size Nominal Capacity [W], 12368.10797
 Component Sizing Information, AirLoopHVAC, 5 ZONE PVAV, Sum of Air Terminal Maximum Heating Flow Rates [m3/s], 1.81938
 Component Sizing Information, AirLoopHVAC, 5 ZONE PVAV, Sum of Air Terminal Minimum Heating Flow Rates [m3/s], 1.81938
 Component Sizing Information, AirLoopHVAC, 5 ZONE PVAV, Sum of Air Terminal Maximum Flow Rates [m3/s], 6.05398
 Component Sizing Information, AirLoopHVAC, 5 ZONE PVAV, Adjusted Heating Design Air Flow Rate [m3/s], 1.81938
 Component Sizing Information, AirLoopHVAC, 5 ZONE PVAV, Adjusted Cooling Design Air Flow Rate [m3/s], 5.15821
 Component Sizing Information, AirLoopHVAC, 5 ZONE PVAV, Adjusted Main Design Air Flow Rate [m3/s], 5.15821
 Component Sizing Information, AirLoopHVAC, 5 ZONE PVAV, User Heating Air Flow Ratio [], 0.30000
 Component Sizing Information, AirLoopHVAC, 5 ZONE PVAV, Calculated Heating Air Flow Ratio [], 0.35271
 Component Sizing Information, AirLoopHVAC, 5 ZONE PVAV 1, Sum of Air Terminal Maximum Heating Flow Rates [m3/s], 1.79743
 Component Sizing Information, AirLoopHVAC, 5 ZONE PVAV 1, Sum of Air Terminal Minimum Heating Flow Rates [m3/s], 1.79743
 Component Sizing Information, AirLoopHVAC, 5 ZONE PVAV 1, Sum of Air Terminal Maximum Flow Rates [m3/s], 5.63246
 Component Sizing Information, AirLoopHVAC, 5 ZONE PVAV 1, Adjusted Heating Design Air Flow Rate [m3/s], 1.79743
 Component Sizing Information, AirLoopHVAC, 5 ZONE PVAV 1, Adjusted Cooling Design Air Flow Rate [m3/s], 4.74835
 Component Sizing Information, AirLoopHVAC, 5 ZONE PVAV 1, Adjusted Main Design Air Flow Rate [m3/s], 4.74835
 Component Sizing Information, AirLoopHVAC, 5 ZONE PVAV 1, User Heating Air Flow Ratio [], 0.30000
 Component Sizing Information, AirLoopHVAC, 5 ZONE PVAV 1, Calculated Heating Air Flow Ratio [], 0.37854
 Component Sizing Information, AirLoopHVAC, 5 ZONE VAV, Sum of Air Terminal Maximum Heating Flow Rates [m3/s], 1.85618
 Component Sizing Information, AirLoopHVAC, 5 ZONE VAV, Sum of Air Terminal Minimum Heating Flow Rates [m3/s], 1.85618
 Component Sizing Information, AirLoopHVAC, 5 ZONE VAV, Sum of Air Terminal Maximum Flow Rates [m3/s], 5.85684
 Component Sizing Information, AirLoopHVAC, 5 ZONE VAV, Adjusted Heating Design Air Flow Rate [m3/s], 1.95698
 Component Sizing Information, AirLoopHVAC, 5 ZONE VAV, Adjusted Cooling Design Air Flow Rate [m3/s], 5.18365
 Component Sizing Information, AirLoopHVAC, 5 ZONE VAV, Adjusted Main Design Air Flow Rate [m3/s], 5.18365
 Component Sizing Information, AirLoopHVAC, 5 ZONE VAV, User Heating Air Flow Ratio [], 0.30000
 Component Sizing Information, AirLoopHVAC, 5 ZONE VAV, Calculated Heating Air Flow Ratio [], 0.37753
 Component Sizing Information, AirLoopHVAC, 5 ZONE PVAV, Design Supply Air Flow Rate [m3/s], 5.15821
 Component Sizing Information, AirLoopHVAC, 5 ZONE PVAV 1, Design Supply Air Flow Rate [m3/s], 4.74835
 Component Sizing Information, AirLoopHVAC, 5 ZONE VAV, Design Supply Air Flow Rate [m3/s], 5.18365
!<Controller:MechanicalVentilation>,Name,Availability Schedule Name,Demand Controlled Ventilation {Yes/No},System Outdoor Air Method,Zone Maximum Outdoor Air Fraction,Number of Zones,Zone Name,DSOA Name,DSZAD Name
 Controller:MechanicalVentilation,5 ZONE PVAV VENTILATION CONTROLLER,OFFICEMEDIUM MINOA_MOTORIZEDDAMPER_SCHED,No,Standard62.1VentilationRateProcedure,1.00,5,CORE_BOTTOM ZN,OFFICE WHOLEBUILDING - MD OFFICE VENTILATION,,PERIMETER_BOT_ZN_1 ZN,OFFICE WHOLEBUILDING - MD OFFICE VENTILATION,,PERIMETER_BOT_ZN_2 ZN,OFFICE WHOLEBUILDING - MD OFFICE VENTILATION,,PERIMETER_BOT_ZN_3 ZN,OFFICE WHOLEBUILDING - MD OFFICE VENTILATION,,PERIMETER_BOT_ZN_4 ZN,OFFICE WHOLEBUILDING - MD OFFICE VENTILATION,
 Controller:MechanicalVentilation,5 ZONE PVAV 1 VENTILATION CONTROLLER,OFFICEMEDIUM MINOA_MOTORIZEDDAMPER_SCHED,No,Standard62.1VentilationRateProcedure,1.00,5,CORE_MID ZN,OFFICE WHOLEBUILDING - MD OFFICE VENTILATION,,PERIMETER_MID_ZN_1 ZN,OFFICE WHOLEBUILDING - MD OFFICE VENTILATION,,PERIMETER_MID_ZN_2 ZN,OFFICE WHOLEBUILDING - MD OFFICE VENTILATION,,PERIMETER_MID_ZN_3 ZN,OFFICE WHOLEBUILDING - MD OFFICE VENTILATION,,PERIMETER_MID_ZN_4 ZN,OFFICE WHOLEBUILDING - MD OFFICE VENTILATION,
 Controller:MechanicalVentilation,5 ZONE PVAV 2 VENTILATION CONTROLLER,OFFICEMEDIUM MINOA_MOTORIZEDDAMPER_SCHED,No,Standard62.1VentilationRateProcedure,1.00,5,CORE_TOP ZN,OFFICE WHOLEBUILDING - MD OFFICE VENTILATION,,PERIMETER_TOP_ZN_1 ZN,OFFICE WHOLEBUILDING - MD OFFICE VENTILATION,,PERIMETER_TOP_ZN_2 ZN,OFFICE WHOLEBUILDING - MD OFFICE VENTILATION,,PERIMETER_TOP_ZN_3 ZN,OFFICE WHOLEBUILDING - MD OFFICE VENTILATION,,PERIMETER_TOP_ZN_4 ZN,OFFICE WHOLEBUILDING - MD OFFICE VENTILATION,
 Component Sizing Information, Controller:OutdoorAir, CONTROLLER OUTDOOR AIR 1, Maximum Outdoor Air Flow Rate [m3/s], 5.15821
 Component Sizing Information, Coil:Cooling:DX:TwoSpeed, 5 ZONE PVAV 2SPD DX CLG COIL 354KBTU/HR 9.8EER, Design Size High Speed Rated Air Flow Rate [m3/s], 5.15821
 Component Sizing Information, Coil:Cooling:DX:TwoSpeed, 5 ZONE PVAV 2SPD DX CLG COIL 354KBTU/HR 9.8EER, Design Size High Speed Gross Rated Total Cooling Capacity [W], 124430.23687
 Component Sizing Information, Coil:Cooling:DX:TwoSpeed, 5 ZONE PVAV 2SPD DX CLG COIL 354KBTU/HR 9.8EER, Design Size High Speed Rated Sensible Heat Ratio, 0.71029
 Component Sizing Information, Coil:Cooling:DX:TwoSpeed, 5 ZONE PVAV 2SPD DX CLG COIL 354KBTU/HR 9.8EER, Design Size Low Speed Rated Air Flow Rate [m3/s], 1.71923
 Component Sizing Information, Coil:Cooling:DX:TwoSpeed, 5 ZONE PVAV 2SPD DX CLG COIL 354KBTU/HR 9.8EER, Design Size Low Speed Gross Rated Total Cooling Capacity [W], 41472.59795
 Component Sizing Information, Coil:Cooling:DX:TwoSpeed, 5 ZONE PVAV 2SPD DX CLG COIL 354KBTU/HR 9.8EER, User-Specified Low Speed Gross Rated Sensible Heat Ratio, 0.69000
! <DX Cooling Coil Standard Rating Information>, Component Type, Component Name, Standard Rating (Net) Cooling Capacity {W}, Standard Rated Net COP {W/W}, EER2 {Btu/W-h}, SEER2 User {Btu/W-h}, SEER2 Standard {Btu/W-h}, IEER 2022 {Btu/W-h}
 DX Cooling Coil Standard Rating Information, Coil:Cooling:DX:TwoSpeed, 5 ZONE PVAV 2SPD DX CLG COIL 354KBTU/HR 9.8EER, 119532.2, 2.88, 9.84, 0.00, 0.00, 11.123145393347935
 Component Sizing Information, Fan:VariableVolume, 5 ZONE PVAV FAN, Design Size Maximum Flow Rate [m3/s], 5.15821
! <VAV DX Cooling Coil Standard Rating Information>, DX Coil Type, DX Coil Name, Fan Type, Fan Name, Standard Net Cooling Capacity {W}, Standard Net Cooling Capacity {Btu/h}, IEER {Btu/W-h}, COP 100% Capacity {W/W}, COP 75% Capacity {W/W}, COP 50% Capacity {W/W}, COP 25% Capacity {W/W}, EER 100% Capacity {Btu/W-h}, EER 75% Capacity {Btu/W-h}, EER 50% Capacity {Btu/W-h}, EER 25% Capacity {Btu/W-h}, Supply Air Flow 100% {kg/s}, Supply Air Flow 75% {kg/s},Supply Air Flow 50% {kg/s},Supply Air Flow 25% {kg/s}
 VAV DX Cooling Coil Standard Rating Information, Coil:Cooling:DX:TwoSpeed,5 ZONE PVAV 2SPD DX CLG COIL 354KBTU/HR 9.8EER,Fan:VariableVolume,5 ZONE PVAV FAN,117057.75,399417.62,11.40,2.67,3.21,3.58,3.67,9.12,10.94,12.21,12.54,5.8259,4.4823,3.0484,1.3549,
 Component Sizing Information, Coil:Heating:Fuel, 5 ZONE PVAV MAIN GAS HTG COIL, Design Size Nominal Capacity [W], 42854.28926
 Component Sizing Information, Controller:OutdoorAir, CONTROLLER OUTDOOR AIR 2, Maximum Outdoor Air Flow Rate [m3/s], 4.74835
 Component Sizing Information, Coil:Cooling:DX:SingleSpeed, 5 ZONE PVAV 1 SINGLE SPD DX CLG COIL, Design Size Rated Air Flow Rate [m3/s], 4.74835
 Component Sizing Information, Coil:Cooling:DX:SingleSpeed, 5 ZONE PVAV 1 SINGLE SPD DX CLG COIL, Design Size Gross Rated Total Cooling Capacity [W], 117321.81696
 Component Sizing Information, Coil:Cooling:DX:SingleSpeed, 5 ZONE PVAV 1 SINGLE SPD DX CLG COIL, Design Size Gross Rated Sensible Heat Ratio, 0.70332
 DX Cooling Coil Standard Rating Information, Coil:Cooling:DX:SingleSpeed, 5 ZONE PVAV 1 SINGLE SPD DX CLG COIL, 113945.4, 2.68, 9.15, 9.25, 9.14, 9.50
 DX Cooling Coil Standard Rating Information, Coil:Cooling:DX:SingleSpeed, 5 ZONE PVAV 1 SINGLE SPD DX CLG COIL, 113180.4, 2.62, 8.93, 9.01, 9.16,  
 Component Sizing Information, Coil:Heating:Electric, 5 ZONE PVAV 1 ELEC HTG COIL, Design Size Nominal Capacity [W], 44061.26862
 Component Sizing Information, Fan:VariableVolume, 5 ZONE PVAV 1 FAN, Design Size Maximum Flow Rate [m3/s], 4.74835
 Component Sizing Information, Controller:OutdoorAir, CONTROLLER OUTDOOR AIR 3, Maximum Outdoor Air Flow Rate [m3/s], 5.18365
 Component Sizing Information, Coil:Cooling:DX:TwoSpeed, 5 ZONE VAV 2SPD DX CLG COIL 364KBTU/HR 9.8EER, Design Size High Speed Rated Air Flow Rate [m3/s], 5.18365
 Component Sizing Information, Coil:Cooling:DX:TwoSpeed, 5 ZONE VAV 2SPD DX CLG COIL 364KBTU/HR 9.8EER, Design Size High Speed Gross Rated Total Cooling Capacity [W], 124142.16614
 Component Sizing Information, Coil:Cooling:DX:TwoSpeed, 5 ZONE VAV 2SPD DX CLG COIL 364KBTU/HR 9.8EER, Design Size High Speed Rated Sensible Heat Ratio, 0.71213
 Component Sizing Information, Coil:Cooling:DX:TwoSpeed, 5 ZONE VAV 2SPD DX CLG COIL 364KBTU/HR 9.8EER, Design Size Low Speed Rated Air Flow Rate [m3/s], 1.72771
 Component Sizing Information, Coil:Cooling:DX:TwoSpeed, 5 ZONE VAV 2SPD DX CLG COIL 364KBTU/HR 9.8EER, Design Size Low Speed Gross Rated Total Cooling Capacity [W], 41376.58398
 Component Sizing Information, Coil:Cooling:DX:TwoSpeed, 5 ZONE VAV 2SPD DX CLG COIL 364KBTU/HR 9.8EER, User-Specified Low Speed Gross Rated Sensible Heat Ratio, 0.69000
 DX Cooling Coil Standard Rating Information, Coil:Cooling:DX:TwoSpeed, 5 ZONE VAV 2SPD DX CLG COIL 364KBTU/HR 9.8EER, 119220.5, 2.88, 9.83, 0.00, 0.00, 11.108139779784953
 Component Sizing Information, Fan:VariableVolume, 5 ZONE VAV FAN, Design Size Maximum Flow Rate [m3/s], 5.18365
 VAV DX Cooling Coil Standard Rating Information, Coil:Cooling:DX:TwoSpeed,5 ZONE VAV 2SPD DX CLG COIL 364KBTU/HR 9.8EER,Fan:VariableVolume,5 ZONE VAV FAN,116934.67,398997.66,11.42,2.69,3.21,3.58,3.68,9.17,10.96,12.22,12.54,5.8546,4.5004,3.0575,1.3605,
 Component Sizing Information, Coil:Heating:Water, 5 ZONE VAV HW HTG COIL, Design Size Rated Capacity [W], 44299.60266
 Component Sizing Information, Coil:Heating:Water, 5 ZONE VAV HW HTG COIL, Design Size Maximum Water Flow Rate [m3/s], 9.78746E-004
 Component Sizing Information, Coil:Heating:Water, 5 ZONE VAV HW HTG COIL, Design Size U-Factor Times Area Value [W/K], 602.73845
! <Water Heating Coil Capacity Information>,Component Type,Name,Nominal Total Capacity {W}
Water Heating Coil Capacity Information,Coil:Heating:Water,5 ZONE VAV HW HTG COIL,31206.52
 Component Sizing Information, Controller:WaterCoil, CONTROLLER WATER COIL 1, Maximum Actuated Flow [m3/s], 9.78746E-004
 Component Sizing Information, Controller:WaterCoil, CONTROLLER WATER COIL 1, Controller Convergence Tolerance, 4.86531E-004
Water Heater Information,WaterHeater:Mixed,100GAL NATURAL GAS WATER HEATER - 100KBTU/HR 0.802 THERM EFF,0.3785,29307.1,1.006,0.2940
 Component Sizing Information, PlantLoop, MAIN SERVICE WATER LOOP, Maximum Loop Flow Rate [m3/s], 5.36265E-005
 Component Sizing Information, PlantLoop, MAIN SERVICE WATER LOOP, Plant Loop Volume [m3], 6.43518E-003
 Component Sizing Information, PlantLoop, MAIN SERVICE WATER LOOP, Design Supply Temperature [C], 60.00000
 Component Sizing Information, PlantLoop, MAIN SERVICE WATER LOOP, Design Return Temperature [C], 55.00000
 Component Sizing Information, PlantLoop, MAIN SERVICE WATER LOOP, Sizing option (Coincident/NonCoincident), 1.00000
 Component Sizing Information, Pump:ConstantSpeed, SERVICE WATER LOOP PUMP, Design Flow Rate [m3/s], 5.36265E-005
 Component Sizing Information, Pump:ConstantSpeed, SERVICE WATER LOOP PUMP, Design Power Consumption [W], 2.93580
 Component Sizing Information, WaterHeater:Mixed, 100GAL NATURAL GAS WATER HEATER - 100KBTU/HR 0.802 THERM EFF, Use Side Design Flow Rate [m3/s], 5.36265E-005
 Component Sizing Information, PlantLoop, VAV HOT WATER LOOP, Maximum Loop Flow Rate [m3/s], 9.78746E-004
 Component Sizing Information, PlantLoop, VAV HOT WATER LOOP, Plant Loop Volume [m3], 0.11745
 Component Sizing Information, PlantLoop, VAV HOT WATER LOOP, Design Supply Temperature [C], 82.00000
 Component Sizing Information, PlantLoop, VAV HOT WATER LOOP, Design Return Temperature [C], 71.00000
 Component Sizing Information, PlantLoop, VAV HOT WATER LOOP, Sizing option (Coincident/NonCoincident), 1.00000
 Component Sizing Information, Pump:VariableSpeed, VAV HOT WATER LOOP VAR SPD PUMP, Design Flow Rate [m3/s], 9.78746E-004
 Component Sizing Information, Pump:VariableSpeed, VAV HOT WATER LOOP VAR SPD PUMP, Design Power Consumption [W], 250.05695
 Component Sizing Information, Boiler:HotWater, VAV HOT WATER LOOP HW BOILER, Design Size Nominal Capacity [W], 44299.60266
 Component Sizing Information, Boiler:HotWater, VAV HOT WATER LOOP HW BOILER, Design Size Design Water Flow Rate [m3/s], 9.78746E-004
! <Environment>,Environment Name,Environment Type, Start Date, End Date, Start DayOfWeek, Duration {#days}, Source:Start DayOfWeek,  Use Daylight Saving, Use Holidays, Apply Weekend Holiday Rule,  Use Rain Values, Use Snow Values, Sky Temperature Model
! <Environment:Special Days>, Special Day Name, Special Day Type, Source, Start Date, Duration {#days}
! <Environment:Daylight Saving>, Daylight Saving Indicator, Source, Start Date, End Date
! <Environment:WarmupDays>, NumberofWarmupDays
Environment,RUN PERIOD 1,WeatherFileRunPeriod,01/01/2006,12/31/2006,Sunday,365,Use RunPeriod Specified Day,No,No,No,Yes,Yes,Clark and Allen
Environment:Daylight Saving,Yes,InputFile,03/12,11/05
Environment:WarmupDays, 13
! <Tabular Report>,Style,Unit Conversion
Tabular Report,HTML,None
! <Warmup Convergence Information>,Zone Name,Environment Type/Name,Average Warmup Temperature Difference {deltaC},Std Dev Warmup Temperature Difference {deltaC},Max Temperature Pass/Fail Convergence,Min Temperature Pass/Fail Convergence,Average Warmup Load Difference {W},Std Dev Warmup Load Difference {W},Heating Load Pass/Fail Convergence,Cooling Load Pass/Fail Convergence
 Warmup Convergence Information,CORE_BOTTOM ZN,RunPeriod: RUN PERIOD 1,1.4698348392E-002,3.1887340690E-002,Pass,Pass,7.6783627813E-003,8.7468077397E-002,Pass,Pass
 Warmup Convergence Information,CORE_MID ZN,RunPeriod: RUN PERIOD 1,4.6785396645E-002,2.5102136382E-002,Pass,Pass,0.5206757175,0.5127010164,Pass,Pass
 Warmup Convergence Information,CORE_TOP ZN,RunPeriod: RUN PERIOD 1,3.9144618659E-002,5.1984943398E-002,Pass,Pass,1.4424231932,3.3766030444,Pass,Pass
 Warmup Convergence Information,FIRSTFLOOR_PLENUM ZN,RunPeriod: RUN PERIOD 1,1.3920318976E-002,1.4056149297E-002,Pass,Pass,1.3770372826E-002,0.1292986937,Pass,Pass
 Warmup Convergence Information,MIDFLOOR_PLENUM ZN,RunPeriod: RUN PERIOD 1,6.8823511671E-002,4.4555990420E-002,Pass,Pass,0.4930723361,0.4654851592,Pass,Pass
 Warmup Convergence Information,PERIMETER_BOT_ZN_1 ZN,RunPeriod: RUN PERIOD 1,9.9324474544E-002,0.1213005844,Pass,Pass,5.8158769427E-003,6.1052027591E-002,Pass,Pass
 Warmup Convergence Information,PERIMETER_BOT_ZN_2 ZN,RunPeriod: RUN PERIOD 1,6.0846034426E-002,9.8621478936E-002,Pass,Pass,7.2774853146E-003,8.2591670193E-002,Pass,Pass
 Warmup Convergence Information,PERIMETER_BOT_ZN_3 ZN,RunPeriod: RUN PERIOD 1,2.8850665164E-002,3.8010884913E-002,Pass,Pass,7.3758593058E-003,8.5515317337E-002,Pass,Pass
 Warmup Convergence Information,PERIMETER_BOT_ZN_4 ZN,RunPeriod: RUN PERIOD 1,4.1980777069E-002,5.3167083153E-002,Pass,Pass,7.4096752135E-003,8.4536448867E-002,Pass,Pass
 Warmup Convergence Information,PERIMETER_MID_ZN_1 ZN,RunPeriod: RUN PERIOD 1,0.2060902717,0.2437155526,Pass,Pass,1.7985462397,9.5217898808,Pass,Pass
 Warmup Convergence Information,PERIMETER_MID_ZN_2 ZN,RunPeriod: RUN PERIOD 1,0.2261895791,0.2924998734,Pass,Pass,1.7445334918,4.6922015458,Pass,Pass
 Warmup Convergence Information,PERIMETER_MID_ZN_3 ZN,RunPeriod: RUN PERIOD 1,0.2735597036,0.2735763487,Pass,Pass,1.8169717702,5.5638586139,Pass,Pass
 Warmup Convergence Information,PERIMETER_MID_ZN_4 ZN,RunPeriod: RUN PERIOD 1,0.2900351464,0.3342508149,Pass,Pass,3.9444326869,28.0676070600,Pass,Pass
 Warmup Convergence Information,PERIMETER_TOP_ZN_1 ZN,RunPeriod: RUN PERIOD 1,0.3016734798,0.3605984716,Pass,Pass,1.5427353605,5.0283553547,Pass,Pass
 Warmup Convergence Information,PERIMETER_TOP_ZN_2 ZN,RunPeriod: RUN PERIOD 1,0.3546590722,0.4282853415,Pass,Pass,2.8246730492,8.0197202595,Pass,Pass
 Warmup Convergence Information,PERIMETER_TOP_ZN_3 ZN,RunPeriod: RUN PERIOD 1,0.4238306675,0.4060980244,Pass,Pass,3.9173194972,13.5076716160,Pass,Pass
 Warmup Convergence Information,PERIMETER_TOP_ZN_4 ZN,RunPeriod: RUN PERIOD 1,0.4365396018,0.4781213079,Pass,Pass,2.7475362691,7.8423927703,Pass,Pass
 Warmup Convergence Information,TOPFLOOR_PLENUM ZN,RunPeriod: RUN PERIOD 1,0.1582119045,0.1128827567,Pass,Pass,0.4935531262,0.4755396771,Pass,Pass
! <Program Control Information:Threads/Parallel Sims>, Threading Supported,Maximum Number of Threads, Env Set Threads (OMP_NUM_THREADS), EP Env Set Threads (EP_OMP_NUM_THREADS), IDF Set Threads, Number of Threads Used (Interior Radiant Exchange), Number Nominal Surfaces, Number Parallel Sims
Program Control:Threads/Parallel Sims, No,1, N/A, N/A, N/A, N/A, N/A, N/A
End of Data
